[VMEM] WARNING: physical memory size is smaller than virtual memory size.

*** ChampSim Multicore Out-of-Order Simulator ***
Warmup Instructions: 20000000
Simulation Instructions: 10000000
Number of CPUs: 1
Page size: 4096

Off-chip DRAM Size: 16 GiB Channels: 1 Width: 64-bit Data Rate: 3205 MT/s
DEADLOCK! CPU 0 cycle 825521
[cpu0_IFETCH] entry:   0 instr_id: 2325138 fetch_issued: true fetch_completed: true scheduled: false executed: false completed: false num_reg_dependent: 0 num_mem_ops: 0 event: 824929
[cpu0_IFETCH] entry:   1 instr_id: 2325139 fetch_issued: true fetch_completed: true scheduled: false executed: false completed: false num_reg_dependent: 0 num_mem_ops: 0 event: 824929
[cpu0_IFETCH] entry:   2 instr_id: 2325140 fetch_issued: true fetch_completed: true scheduled: false executed: false completed: false num_reg_dependent: 0 num_mem_ops: 1 event: 824929
[cpu0_IFETCH] entry:   3 instr_id: 2325141 fetch_issued: true fetch_completed: true scheduled: false executed: false completed: false num_reg_dependent: 0 num_mem_ops: 0 event: 824929
[cpu0_IFETCH] entry:   4 instr_id: 2325142 fetch_issued: true fetch_completed: true scheduled: false executed: false completed: false num_reg_dependent: 0 num_mem_ops: 0 event: 824929
[cpu0_IFETCH] entry:   5 instr_id: 2325143 fetch_issued: true fetch_completed: true scheduled: false executed: false completed: false num_reg_dependent: 0 num_mem_ops: 1 event: 824930
[cpu0_IFETCH] entry:   6 instr_id: 2325144 fetch_issued: true fetch_completed: true scheduled: false executed: false completed: false num_reg_dependent: 0 num_mem_ops: 1 event: 824930
[cpu0_IFETCH] entry:   7 instr_id: 2325145 fetch_issued: true fetch_completed: true scheduled: false executed: false completed: false num_reg_dependent: 0 num_mem_ops: 1 event: 824930
[cpu0_IFETCH] entry:   8 instr_id: 2325146 fetch_issued: true fetch_completed: true scheduled: false executed: false completed: false num_reg_dependent: 0 num_mem_ops: 1 event: 824930
[cpu0_IFETCH] entry:   9 instr_id: 2325147 fetch_issued: true fetch_completed: true scheduled: false executed: false completed: false num_reg_dependent: 0 num_mem_ops: 0 event: 824930
[cpu0_IFETCH] entry:  10 instr_id: 2325148 fetch_issued: true fetch_completed: true scheduled: false executed: false completed: false num_reg_dependent: 0 num_mem_ops: 0 event: 824930
[cpu0_IFETCH] entry:  11 instr_id: 2325149 fetch_issued: true fetch_completed: true scheduled: false executed: false completed: false num_reg_dependent: 0 num_mem_ops: 1 event: 824931
[cpu0_IFETCH] entry:  12 instr_id: 2325150 fetch_issued: true fetch_completed: true scheduled: false executed: false completed: false num_reg_dependent: 0 num_mem_ops: 0 event: 824931
[cpu0_IFETCH] entry:  13 instr_id: 2325151 fetch_issued: true fetch_completed: true scheduled: false executed: false completed: false num_reg_dependent: 0 num_mem_ops: 0 event: 824931
[cpu0_IFETCH] entry:  14 instr_id: 2325152 fetch_issued: true fetch_completed: true scheduled: false executed: false completed: false num_reg_dependent: 0 num_mem_ops: 0 event: 824931
[cpu0_IFETCH] entry:  15 instr_id: 2325153 fetch_issued: true fetch_completed: true scheduled: false executed: false completed: false num_reg_dependent: 0 num_mem_ops: 0 event: 824931
[cpu0_IFETCH] entry:  16 instr_id: 2325154 fetch_issued: true fetch_completed: true scheduled: false executed: false completed: false num_reg_dependent: 0 num_mem_ops: 0 event: 824932
[cpu0_IFETCH] entry:  17 instr_id: 2325155 fetch_issued: true fetch_completed: true scheduled: false executed: false completed: false num_reg_dependent: 0 num_mem_ops: 1 event: 824933
[cpu0_IFETCH] entry:  18 instr_id: 2325156 fetch_issued: true fetch_completed: true scheduled: false executed: false completed: false num_reg_dependent: 0 num_mem_ops: 0 event: 824933
[cpu0_IFETCH] entry:  19 instr_id: 2325157 fetch_issued: true fetch_completed: true scheduled: false executed: false completed: false num_reg_dependent: 0 num_mem_ops: 1 event: 824933
[cpu0_IFETCH] entry:  20 instr_id: 2325158 fetch_issued: true fetch_completed: true scheduled: false executed: false completed: false num_reg_dependent: 0 num_mem_ops: 0 event: 824933
[cpu0_IFETCH] entry:  21 instr_id: 2325159 fetch_issued: true fetch_completed: true scheduled: false executed: false completed: false num_reg_dependent: 0 num_mem_ops: 1 event: 824933
[cpu0_IFETCH] entry:  22 instr_id: 2325160 fetch_issued: true fetch_completed: true scheduled: false executed: false completed: false num_reg_dependent: 0 num_mem_ops: 0 event: 824933
[cpu0_IFETCH] entry:  23 instr_id: 2325161 fetch_issued: true fetch_completed: true scheduled: false executed: false completed: false num_reg_dependent: 0 num_mem_ops: 1 event: 824934
[cpu0_IFETCH] entry:  24 instr_id: 2325162 fetch_issued: true fetch_completed: true scheduled: false executed: false completed: false num_reg_dependent: 0 num_mem_ops: 0 event: 824934
[cpu0_IFETCH] entry:  25 instr_id: 2325163 fetch_issued: true fetch_completed: true scheduled: false executed: false completed: false num_reg_dependent: 0 num_mem_ops: 0 event: 824934
[cpu0_IFETCH] entry:  26 instr_id: 2325164 fetch_issued: true fetch_completed: true scheduled: false executed: false completed: false num_reg_dependent: 0 num_mem_ops: 0 event: 824934
[cpu0_IFETCH] entry:  27 instr_id: 2325165 fetch_issued: true fetch_completed: true scheduled: false executed: false completed: false num_reg_dependent: 0 num_mem_ops: 1 event: 824934
[cpu0_IFETCH] entry:  28 instr_id: 2325166 fetch_issued: true fetch_completed: true scheduled: false executed: false completed: false num_reg_dependent: 0 num_mem_ops: 0 event: 824934
[cpu0_IFETCH] entry:  29 instr_id: 2325167 fetch_issued: true fetch_completed: true scheduled: false executed: false completed: false num_reg_dependent: 0 num_mem_ops: 1 event: 824935
[cpu0_IFETCH] entry:  30 instr_id: 2325168 fetch_issued: true fetch_completed: true scheduled: false executed: false completed: false num_reg_dependent: 0 num_mem_ops: 0 event: 824935
[cpu0_IFETCH] entry:  31 instr_id: 2325169 fetch_issued: true fetch_completed: true scheduled: false executed: false completed: false num_reg_dependent: 0 num_mem_ops: 1 event: 824935
[cpu0_IFETCH] entry:  32 instr_id: 2325170 fetch_issued: true fetch_completed: true scheduled: false executed: false completed: false num_reg_dependent: 0 num_mem_ops: 0 event: 824935
[cpu0_IFETCH] entry:  33 instr_id: 2325171 fetch_issued: true fetch_completed: true scheduled: false executed: false completed: false num_reg_dependent: 0 num_mem_ops: 1 event: 824936
[cpu0_IFETCH] entry:  34 instr_id: 2325172 fetch_issued: true fetch_completed: true scheduled: false executed: false completed: false num_reg_dependent: 0 num_mem_ops: 0 event: 824936
[cpu0_IFETCH] entry:  35 instr_id: 2325173 fetch_issued: true fetch_completed: true scheduled: false executed: false completed: false num_reg_dependent: 0 num_mem_ops: 0 event: 824936
[cpu0_IFETCH] entry:  36 instr_id: 2325174 fetch_issued: true fetch_completed: true scheduled: false executed: false completed: false num_reg_dependent: 0 num_mem_ops: 0 event: 824936
[cpu0_IFETCH] entry:  37 instr_id: 2325175 fetch_issued: true fetch_completed: true scheduled: false executed: false completed: false num_reg_dependent: 0 num_mem_ops: 1 event: 824957
[cpu0_IFETCH] entry:  38 instr_id: 2325176 fetch_issued: true fetch_completed: true scheduled: false executed: false completed: false num_reg_dependent: 0 num_mem_ops: 0 event: 824957
[cpu0_IFETCH] entry:  39 instr_id: 2325177 fetch_issued: true fetch_completed: true scheduled: false executed: false completed: false num_reg_dependent: 0 num_mem_ops: 1 event: 824957
[cpu0_IFETCH] entry:  40 instr_id: 2325178 fetch_issued: true fetch_completed: true scheduled: false executed: false completed: false num_reg_dependent: 0 num_mem_ops: 0 event: 824957
[cpu0_IFETCH] entry:  41 instr_id: 2325179 fetch_issued: true fetch_completed: true scheduled: false executed: false completed: false num_reg_dependent: 0 num_mem_ops: 1 event: 824957
[cpu0_IFETCH] entry:  42 instr_id: 2325180 fetch_issued: true fetch_completed: true scheduled: false executed: false completed: false num_reg_dependent: 0 num_mem_ops: 0 event: 824958
[cpu0_IFETCH] entry:  43 instr_id: 2325181 fetch_issued: true fetch_completed: true scheduled: false executed: false completed: false num_reg_dependent: 0 num_mem_ops: 1 event: 824958
[cpu0_IFETCH] entry:  44 instr_id: 2325182 fetch_issued: true fetch_completed: true scheduled: false executed: false completed: false num_reg_dependent: 0 num_mem_ops: 0 event: 824958
[cpu0_IFETCH] entry:  45 instr_id: 2325183 fetch_issued: true fetch_completed: true scheduled: false executed: false completed: false num_reg_dependent: 0 num_mem_ops: 0 event: 824958
[cpu0_IFETCH] entry:  46 instr_id: 2325184 fetch_issued: true fetch_completed: true scheduled: false executed: false completed: false num_reg_dependent: 0 num_mem_ops: 0 event: 824958
[cpu0_IFETCH] entry:  47 instr_id: 2325185 fetch_issued: true fetch_completed: true scheduled: false executed: false completed: false num_reg_dependent: 0 num_mem_ops: 1 event: 824959
[cpu0_IFETCH] entry:  48 instr_id: 2325186 fetch_issued: true fetch_completed: true scheduled: false executed: false completed: false num_reg_dependent: 0 num_mem_ops: 0 event: 824959
[cpu0_IFETCH] entry:  49 instr_id: 2325187 fetch_issued: true fetch_completed: true scheduled: false executed: false completed: false num_reg_dependent: 0 num_mem_ops: 1 event: 824959
[cpu0_IFETCH] entry:  50 instr_id: 2325188 fetch_issued: true fetch_completed: true scheduled: false executed: false completed: false num_reg_dependent: 0 num_mem_ops: 1 event: 824959
[cpu0_IFETCH] entry:  51 instr_id: 2325189 fetch_issued: true fetch_completed: true scheduled: false executed: false completed: false num_reg_dependent: 0 num_mem_ops: 1 event: 824959
[cpu0_IFETCH] entry:  52 instr_id: 2325190 fetch_issued: true fetch_completed: true scheduled: false executed: false completed: false num_reg_dependent: 0 num_mem_ops: 0 event: 824960
[cpu0_IFETCH] entry:  53 instr_id: 2325191 fetch_issued: true fetch_completed: true scheduled: false executed: false completed: false num_reg_dependent: 0 num_mem_ops: 0 event: 824960
[cpu0_IFETCH] entry:  54 instr_id: 2325192 fetch_issued: true fetch_completed: true scheduled: false executed: false completed: false num_reg_dependent: 0 num_mem_ops: 1 event: 824960
[cpu0_IFETCH] entry:  55 instr_id: 2325193 fetch_issued: true fetch_completed: true scheduled: false executed: false completed: false num_reg_dependent: 0 num_mem_ops: 0 event: 824960
[cpu0_IFETCH] entry:  56 instr_id: 2325194 fetch_issued: true fetch_completed: true scheduled: false executed: false completed: false num_reg_dependent: 0 num_mem_ops: 0 event: 824960
[cpu0_IFETCH] entry:  57 instr_id: 2325195 fetch_issued: true fetch_completed: true scheduled: false executed: false completed: false num_reg_dependent: 0 num_mem_ops: 1 event: 824961
[cpu0_IFETCH] entry:  58 instr_id: 2325196 fetch_issued: true fetch_completed: true scheduled: false executed: false completed: false num_reg_dependent: 0 num_mem_ops: 0 event: 824961
[cpu0_IFETCH] entry:  59 instr_id: 2325197 fetch_issued: true fetch_completed: true scheduled: false executed: false completed: false num_reg_dependent: 0 num_mem_ops: 1 event: 824961
[cpu0_IFETCH] entry:  60 instr_id: 2325198 fetch_issued: true fetch_completed: true scheduled: false executed: false completed: false num_reg_dependent: 0 num_mem_ops: 1 event: 824961
[cpu0_IFETCH] entry:  61 instr_id: 2325199 fetch_issued: true fetch_completed: true scheduled: false executed: false completed: false num_reg_dependent: 0 num_mem_ops: 0 event: 824961
[cpu0_IFETCH] entry:  62 instr_id: 2325200 fetch_issued: true fetch_completed: true scheduled: false executed: false completed: false num_reg_dependent: 0 num_mem_ops: 1 event: 824962
[cpu0_IFETCH] entry:  63 instr_id: 2325201 fetch_issued: true fetch_completed: true scheduled: false executed: false completed: false num_reg_dependent: 0 num_mem_ops: 0 event: 824962

cpu0_DECODE empty

[cpu0_DISPATCH] entry:   0 instr_id: 2325074 fetch_issued: true fetch_completed: true scheduled: false executed: false completed: false num_reg_dependent: 0 num_mem_ops: 0 event: 824934
[cpu0_DISPATCH] entry:   1 instr_id: 2325075 fetch_issued: true fetch_completed: true scheduled: false executed: false completed: false num_reg_dependent: 0 num_mem_ops: 0 event: 824934
[cpu0_DISPATCH] entry:   2 instr_id: 2325076 fetch_issued: true fetch_completed: true scheduled: false executed: false completed: false num_reg_dependent: 0 num_mem_ops: 0 event: 824934
[cpu0_DISPATCH] entry:   3 instr_id: 2325077 fetch_issued: true fetch_completed: true scheduled: false executed: false completed: false num_reg_dependent: 0 num_mem_ops: 1 event: 824934
[cpu0_DISPATCH] entry:   4 instr_id: 2325078 fetch_issued: true fetch_completed: true scheduled: false executed: false completed: false num_reg_dependent: 0 num_mem_ops: 0 event: 824935
[cpu0_DISPATCH] entry:   5 instr_id: 2325079 fetch_issued: true fetch_completed: true scheduled: false executed: false completed: false num_reg_dependent: 0 num_mem_ops: 0 event: 824956
[cpu0_DISPATCH] entry:   6 instr_id: 2325080 fetch_issued: true fetch_completed: true scheduled: false executed: false completed: false num_reg_dependent: 0 num_mem_ops: 0 event: 824956
[cpu0_DISPATCH] entry:   7 instr_id: 2325081 fetch_issued: true fetch_completed: true scheduled: false executed: false completed: false num_reg_dependent: 0 num_mem_ops: 0 event: 824956
[cpu0_DISPATCH] entry:   8 instr_id: 2325082 fetch_issued: true fetch_completed: true scheduled: false executed: false completed: false num_reg_dependent: 0 num_mem_ops: 0 event: 824956
[cpu0_DISPATCH] entry:   9 instr_id: 2325083 fetch_issued: true fetch_completed: true scheduled: false executed: false completed: false num_reg_dependent: 0 num_mem_ops: 1 event: 824956
[cpu0_DISPATCH] entry:  10 instr_id: 2325084 fetch_issued: true fetch_completed: true scheduled: false executed: false completed: false num_reg_dependent: 0 num_mem_ops: 1 event: 824957
[cpu0_DISPATCH] entry:  11 instr_id: 2325085 fetch_issued: true fetch_completed: true scheduled: false executed: false completed: false num_reg_dependent: 0 num_mem_ops: 1 event: 824957
[cpu0_DISPATCH] entry:  12 instr_id: 2325086 fetch_issued: true fetch_completed: true scheduled: false executed: false completed: false num_reg_dependent: 0 num_mem_ops: 1 event: 824957
[cpu0_DISPATCH] entry:  13 instr_id: 2325087 fetch_issued: true fetch_completed: true scheduled: false executed: false completed: false num_reg_dependent: 0 num_mem_ops: 1 event: 824957
[cpu0_DISPATCH] entry:  14 instr_id: 2325088 fetch_issued: true fetch_completed: true scheduled: false executed: false completed: false num_reg_dependent: 0 num_mem_ops: 1 event: 824957
[cpu0_DISPATCH] entry:  15 instr_id: 2325089 fetch_issued: true fetch_completed: true scheduled: false executed: false completed: false num_reg_dependent: 0 num_mem_ops: 1 event: 824958
[cpu0_DISPATCH] entry:  16 instr_id: 2325090 fetch_issued: true fetch_completed: true scheduled: false executed: false completed: false num_reg_dependent: 0 num_mem_ops: 1 event: 824958
[cpu0_DISPATCH] entry:  17 instr_id: 2325091 fetch_issued: true fetch_completed: true scheduled: false executed: false completed: false num_reg_dependent: 0 num_mem_ops: 0 event: 824958
[cpu0_DISPATCH] entry:  18 instr_id: 2325092 fetch_issued: true fetch_completed: true scheduled: false executed: false completed: false num_reg_dependent: 0 num_mem_ops: 0 event: 824958
[cpu0_DISPATCH] entry:  19 instr_id: 2325093 fetch_issued: true fetch_completed: true scheduled: false executed: false completed: false num_reg_dependent: 0 num_mem_ops: 0 event: 824958
[cpu0_DISPATCH] entry:  20 instr_id: 2325094 fetch_issued: true fetch_completed: true scheduled: false executed: false completed: false num_reg_dependent: 0 num_mem_ops: 1 event: 824959
[cpu0_DISPATCH] entry:  21 instr_id: 2325095 fetch_issued: true fetch_completed: true scheduled: false executed: false completed: false num_reg_dependent: 0 num_mem_ops: 1 event: 824959
[cpu0_DISPATCH] entry:  22 instr_id: 2325096 fetch_issued: true fetch_completed: true scheduled: false executed: false completed: false num_reg_dependent: 0 num_mem_ops: 1 event: 824959
[cpu0_DISPATCH] entry:  23 instr_id: 2325097 fetch_issued: true fetch_completed: true scheduled: false executed: false completed: false num_reg_dependent: 0 num_mem_ops: 1 event: 824959
[cpu0_DISPATCH] entry:  24 instr_id: 2325098 fetch_issued: true fetch_completed: true scheduled: false executed: false completed: false num_reg_dependent: 0 num_mem_ops: 1 event: 824959
[cpu0_DISPATCH] entry:  25 instr_id: 2325099 fetch_issued: true fetch_completed: true scheduled: false executed: false completed: false num_reg_dependent: 0 num_mem_ops: 1 event: 824960
[cpu0_DISPATCH] entry:  26 instr_id: 2325100 fetch_issued: true fetch_completed: true scheduled: false executed: false completed: false num_reg_dependent: 0 num_mem_ops: 0 event: 824960
[cpu0_DISPATCH] entry:  27 instr_id: 2325101 fetch_issued: true fetch_completed: true scheduled: false executed: false completed: false num_reg_dependent: 0 num_mem_ops: 0 event: 824960
[cpu0_DISPATCH] entry:  28 instr_id: 2325102 fetch_issued: true fetch_completed: true scheduled: false executed: false completed: false num_reg_dependent: 0 num_mem_ops: 0 event: 824960
[cpu0_DISPATCH] entry:  29 instr_id: 2325103 fetch_issued: true fetch_completed: true scheduled: false executed: false completed: false num_reg_dependent: 0 num_mem_ops: 0 event: 824960
[cpu0_DISPATCH] entry:  30 instr_id: 2325104 fetch_issued: true fetch_completed: true scheduled: false executed: false completed: false num_reg_dependent: 0 num_mem_ops: 0 event: 824961
[cpu0_DISPATCH] entry:  31 instr_id: 2325105 fetch_issued: true fetch_completed: true scheduled: false executed: false completed: false num_reg_dependent: 0 num_mem_ops: 1 event: 824961

[cpu0_ROB] entry:   0 instr_id: 2324722 fetch_issued: true fetch_completed: true scheduled: true executed: true completed: false num_reg_dependent: 0 num_mem_ops: 1 event: 824800
[cpu0_ROB] entry:   1 instr_id: 2324723 fetch_issued: true fetch_completed: true scheduled: true executed: true completed: true num_reg_dependent: 0 num_mem_ops: 0 event: 824800
[cpu0_ROB] entry:   2 instr_id: 2324724 fetch_issued: true fetch_completed: true scheduled: true executed: true completed: true num_reg_dependent: 0 num_mem_ops: 0 event: 824800
[cpu0_ROB] entry:   3 instr_id: 2324725 fetch_issued: true fetch_completed: true scheduled: true executed: true completed: true num_reg_dependent: 0 num_mem_ops: 0 event: 824800
[cpu0_ROB] entry:   4 instr_id: 2324726 fetch_issued: true fetch_completed: true scheduled: true executed: true completed: true num_reg_dependent: 0 num_mem_ops: 0 event: 824801
[cpu0_ROB] entry:   5 instr_id: 2324727 fetch_issued: true fetch_completed: true scheduled: true executed: true completed: true num_reg_dependent: 0 num_mem_ops: 0 event: 824801
[cpu0_ROB] entry:   6 instr_id: 2324728 fetch_issued: true fetch_completed: true scheduled: true executed: true completed: true num_reg_dependent: 0 num_mem_ops: 0 event: 824801
[cpu0_ROB] entry:   7 instr_id: 2324729 fetch_issued: true fetch_completed: true scheduled: true executed: true completed: true num_reg_dependent: 0 num_mem_ops: 0 event: 824801
[cpu0_ROB] entry:   8 instr_id: 2324730 fetch_issued: true fetch_completed: true scheduled: true executed: true completed: true num_reg_dependent: 0 num_mem_ops: 0 event: 824802
[cpu0_ROB] entry:   9 instr_id: 2324731 fetch_issued: true fetch_completed: true scheduled: true executed: true completed: true num_reg_dependent: 0 num_mem_ops: 0 event: 824802
[cpu0_ROB] entry:  10 instr_id: 2324732 fetch_issued: true fetch_completed: true scheduled: true executed: true completed: true num_reg_dependent: 0 num_mem_ops: 0 event: 824802
[cpu0_ROB] entry:  11 instr_id: 2324733 fetch_issued: true fetch_completed: true scheduled: true executed: true completed: true num_reg_dependent: 0 num_mem_ops: 0 event: 824802
[cpu0_ROB] entry:  12 instr_id: 2324734 fetch_issued: true fetch_completed: true scheduled: true executed: true completed: true num_reg_dependent: 0 num_mem_ops: 0 event: 824803
[cpu0_ROB] entry:  13 instr_id: 2324735 fetch_issued: true fetch_completed: true scheduled: true executed: true completed: true num_reg_dependent: 0 num_mem_ops: 0 event: 824803
[cpu0_ROB] entry:  14 instr_id: 2324736 fetch_issued: true fetch_completed: true scheduled: true executed: true completed: true num_reg_dependent: 0 num_mem_ops: 0 event: 824803
[cpu0_ROB] entry:  15 instr_id: 2324737 fetch_issued: true fetch_completed: true scheduled: true executed: true completed: true num_reg_dependent: 0 num_mem_ops: 0 event: 824803
[cpu0_ROB] entry:  16 instr_id: 2324738 fetch_issued: true fetch_completed: true scheduled: true executed: true completed: true num_reg_dependent: 0 num_mem_ops: 0 event: 824804
[cpu0_ROB] entry:  17 instr_id: 2324739 fetch_issued: true fetch_completed: true scheduled: true executed: true completed: true num_reg_dependent: 0 num_mem_ops: 0 event: 824804
[cpu0_ROB] entry:  18 instr_id: 2324740 fetch_issued: true fetch_completed: true scheduled: true executed: true completed: true num_reg_dependent: 0 num_mem_ops: 0 event: 824804
[cpu0_ROB] entry:  19 instr_id: 2324741 fetch_issued: true fetch_completed: true scheduled: true executed: true completed: true num_reg_dependent: 0 num_mem_ops: 0 event: 824804
[cpu0_ROB] entry:  20 instr_id: 2324742 fetch_issued: true fetch_completed: true scheduled: true executed: true completed: true num_reg_dependent: 0 num_mem_ops: 0 event: 824805
[cpu0_ROB] entry:  21 instr_id: 2324743 fetch_issued: true fetch_completed: true scheduled: true executed: true completed: true num_reg_dependent: 0 num_mem_ops: 0 event: 824805
[cpu0_ROB] entry:  22 instr_id: 2324744 fetch_issued: true fetch_completed: true scheduled: true executed: true completed: true num_reg_dependent: 0 num_mem_ops: 0 event: 824805
[cpu0_ROB] entry:  23 instr_id: 2324745 fetch_issued: true fetch_completed: true scheduled: true executed: true completed: true num_reg_dependent: 0 num_mem_ops: 0 event: 824805
[cpu0_ROB] entry:  24 instr_id: 2324746 fetch_issued: true fetch_completed: true scheduled: true executed: true completed: true num_reg_dependent: 0 num_mem_ops: 0 event: 824806
[cpu0_ROB] entry:  25 instr_id: 2324747 fetch_issued: true fetch_completed: true scheduled: true executed: true completed: true num_reg_dependent: 0 num_mem_ops: 0 event: 824806
[cpu0_ROB] entry:  26 instr_id: 2324748 fetch_issued: true fetch_completed: true scheduled: true executed: true completed: true num_reg_dependent: 0 num_mem_ops: 0 event: 824806
[cpu0_ROB] entry:  27 instr_id: 2324749 fetch_issued: true fetch_completed: true scheduled: true executed: true completed: true num_reg_dependent: 0 num_mem_ops: 0 event: 824806
[cpu0_ROB] entry:  28 instr_id: 2324750 fetch_issued: true fetch_completed: true scheduled: true executed: true completed: true num_reg_dependent: 0 num_mem_ops: 0 event: 824807
[cpu0_ROB] entry:  29 instr_id: 2324751 fetch_issued: true fetch_completed: true scheduled: true executed: true completed: true num_reg_dependent: 0 num_mem_ops: 0 event: 824807
[cpu0_ROB] entry:  30 instr_id: 2324752 fetch_issued: true fetch_completed: true scheduled: true executed: true completed: true num_reg_dependent: 0 num_mem_ops: 0 event: 824807
[cpu0_ROB] entry:  31 instr_id: 2324753 fetch_issued: true fetch_completed: true scheduled: true executed: true completed: true num_reg_dependent: 0 num_mem_ops: 0 event: 824807
[cpu0_ROB] entry:  32 instr_id: 2324754 fetch_issued: true fetch_completed: true scheduled: true executed: true completed: true num_reg_dependent: 0 num_mem_ops: 0 event: 824808
[cpu0_ROB] entry:  33 instr_id: 2324755 fetch_issued: true fetch_completed: true scheduled: true executed: true completed: true num_reg_dependent: 0 num_mem_ops: 0 event: 824808
[cpu0_ROB] entry:  34 instr_id: 2324756 fetch_issued: true fetch_completed: true scheduled: true executed: true completed: true num_reg_dependent: 0 num_mem_ops: 0 event: 824808
[cpu0_ROB] entry:  35 instr_id: 2324757 fetch_issued: true fetch_completed: true scheduled: true executed: true completed: true num_reg_dependent: 0 num_mem_ops: 0 event: 824808
[cpu0_ROB] entry:  36 instr_id: 2324758 fetch_issued: true fetch_completed: true scheduled: true executed: true completed: true num_reg_dependent: 0 num_mem_ops: 0 event: 824809
[cpu0_ROB] entry:  37 instr_id: 2324759 fetch_issued: true fetch_completed: true scheduled: true executed: true completed: true num_reg_dependent: 0 num_mem_ops: 0 event: 824809
[cpu0_ROB] entry:  38 instr_id: 2324760 fetch_issued: true fetch_completed: true scheduled: true executed: true completed: true num_reg_dependent: 0 num_mem_ops: 0 event: 824809
[cpu0_ROB] entry:  39 instr_id: 2324761 fetch_issued: true fetch_completed: true scheduled: true executed: true completed: true num_reg_dependent: 0 num_mem_ops: 0 event: 824809
[cpu0_ROB] entry:  40 instr_id: 2324762 fetch_issued: true fetch_completed: true scheduled: true executed: true completed: true num_reg_dependent: 0 num_mem_ops: 0 event: 824810
[cpu0_ROB] entry:  41 instr_id: 2324763 fetch_issued: true fetch_completed: true scheduled: true executed: true completed: true num_reg_dependent: 0 num_mem_ops: 0 event: 824810
[cpu0_ROB] entry:  42 instr_id: 2324764 fetch_issued: true fetch_completed: true scheduled: true executed: true completed: true num_reg_dependent: 0 num_mem_ops: 0 event: 824824
[cpu0_ROB] entry:  43 instr_id: 2324765 fetch_issued: true fetch_completed: true scheduled: true executed: true completed: true num_reg_dependent: 0 num_mem_ops: 0 event: 824824
[cpu0_ROB] entry:  44 instr_id: 2324766 fetch_issued: true fetch_completed: true scheduled: true executed: true completed: true num_reg_dependent: 0 num_mem_ops: 0 event: 824824
[cpu0_ROB] entry:  45 instr_id: 2324767 fetch_issued: true fetch_completed: true scheduled: true executed: true completed: true num_reg_dependent: 0 num_mem_ops: 0 event: 824824
[cpu0_ROB] entry:  46 instr_id: 2324768 fetch_issued: true fetch_completed: true scheduled: true executed: true completed: true num_reg_dependent: 0 num_mem_ops: 0 event: 824825
[cpu0_ROB] entry:  47 instr_id: 2324769 fetch_issued: true fetch_completed: true scheduled: true executed: true completed: true num_reg_dependent: 0 num_mem_ops: 0 event: 824825
[cpu0_ROB] entry:  48 instr_id: 2324770 fetch_issued: true fetch_completed: true scheduled: true executed: true completed: true num_reg_dependent: 0 num_mem_ops: 0 event: 824825
[cpu0_ROB] entry:  49 instr_id: 2324771 fetch_issued: true fetch_completed: true scheduled: true executed: true completed: true num_reg_dependent: 0 num_mem_ops: 0 event: 824825
[cpu0_ROB] entry:  50 instr_id: 2324772 fetch_issued: true fetch_completed: true scheduled: true executed: true completed: true num_reg_dependent: 0 num_mem_ops: 0 event: 824826
[cpu0_ROB] entry:  51 instr_id: 2324773 fetch_issued: true fetch_completed: true scheduled: true executed: true completed: true num_reg_dependent: 0 num_mem_ops: 0 event: 824826
[cpu0_ROB] entry:  52 instr_id: 2324774 fetch_issued: true fetch_completed: true scheduled: true executed: true completed: true num_reg_dependent: 0 num_mem_ops: 0 event: 824826
[cpu0_ROB] entry:  53 instr_id: 2324775 fetch_issued: true fetch_completed: true scheduled: true executed: true completed: true num_reg_dependent: 0 num_mem_ops: 0 event: 824826
[cpu0_ROB] entry:  54 instr_id: 2324776 fetch_issued: true fetch_completed: true scheduled: true executed: true completed: true num_reg_dependent: 0 num_mem_ops: 0 event: 824827
[cpu0_ROB] entry:  55 instr_id: 2324777 fetch_issued: true fetch_completed: true scheduled: true executed: true completed: false num_reg_dependent: 0 num_mem_ops: 1 event: 824827
[cpu0_ROB] entry:  56 instr_id: 2324778 fetch_issued: true fetch_completed: true scheduled: true executed: true completed: true num_reg_dependent: 0 num_mem_ops: 0 event: 824827
[cpu0_ROB] entry:  57 instr_id: 2324779 fetch_issued: true fetch_completed: true scheduled: true executed: true completed: true num_reg_dependent: 0 num_mem_ops: 0 event: 824827
[cpu0_ROB] entry:  58 instr_id: 2324780 fetch_issued: true fetch_completed: true scheduled: true executed: true completed: false num_reg_dependent: 0 num_mem_ops: 1 event: 824828
[cpu0_ROB] entry:  59 instr_id: 2324781 fetch_issued: true fetch_completed: true scheduled: true executed: true completed: true num_reg_dependent: 0 num_mem_ops: 0 event: 824828
[cpu0_ROB] entry:  60 instr_id: 2324782 fetch_issued: true fetch_completed: true scheduled: true executed: true completed: true num_reg_dependent: 0 num_mem_ops: 0 event: 824828
[cpu0_ROB] entry:  61 instr_id: 2324783 fetch_issued: true fetch_completed: true scheduled: true executed: true completed: true num_reg_dependent: 0 num_mem_ops: 0 event: 824828
[cpu0_ROB] entry:  62 instr_id: 2324784 fetch_issued: true fetch_completed: true scheduled: true executed: true completed: true num_reg_dependent: 0 num_mem_ops: 0 event: 824829
[cpu0_ROB] entry:  63 instr_id: 2324785 fetch_issued: true fetch_completed: true scheduled: true executed: true completed: true num_reg_dependent: 0 num_mem_ops: 0 event: 824829
[cpu0_ROB] entry:  64 instr_id: 2324786 fetch_issued: true fetch_completed: true scheduled: true executed: true completed: true num_reg_dependent: 0 num_mem_ops: 0 event: 824829
[cpu0_ROB] entry:  65 instr_id: 2324787 fetch_issued: true fetch_completed: true scheduled: true executed: true completed: true num_reg_dependent: 0 num_mem_ops: 0 event: 824829
[cpu0_ROB] entry:  66 instr_id: 2324788 fetch_issued: true fetch_completed: true scheduled: true executed: true completed: true num_reg_dependent: 0 num_mem_ops: 0 event: 824830
[cpu0_ROB] entry:  67 instr_id: 2324789 fetch_issued: true fetch_completed: true scheduled: true executed: true completed: true num_reg_dependent: 0 num_mem_ops: 0 event: 824830
[cpu0_ROB] entry:  68 instr_id: 2324790 fetch_issued: true fetch_completed: true scheduled: true executed: true completed: true num_reg_dependent: 0 num_mem_ops: 0 event: 824830
[cpu0_ROB] entry:  69 instr_id: 2324791 fetch_issued: true fetch_completed: true scheduled: true executed: true completed: true num_reg_dependent: 0 num_mem_ops: 0 event: 824836
[cpu0_ROB] entry:  70 instr_id: 2324792 fetch_issued: true fetch_completed: true scheduled: true executed: true completed: false num_reg_dependent: 0 num_mem_ops: 1 event: 824836
[cpu0_ROB] entry:  71 instr_id: 2324793 fetch_issued: true fetch_completed: true scheduled: true executed: true completed: true num_reg_dependent: 0 num_mem_ops: 0 event: 824838
[cpu0_ROB] entry:  72 instr_id: 2324794 fetch_issued: true fetch_completed: true scheduled: true executed: true completed: true num_reg_dependent: 0 num_mem_ops: 0 event: 824838
[cpu0_ROB] entry:  73 instr_id: 2324795 fetch_issued: true fetch_completed: true scheduled: true executed: true completed: true num_reg_dependent: 0 num_mem_ops: 0 event: 824838
[cpu0_ROB] entry:  74 instr_id: 2324796 fetch_issued: true fetch_completed: true scheduled: true executed: true completed: true num_reg_dependent: 0 num_mem_ops: 0 event: 824838
[cpu0_ROB] entry:  75 instr_id: 2324797 fetch_issued: true fetch_completed: true scheduled: true executed: true completed: true num_reg_dependent: 0 num_mem_ops: 0 event: 824839
[cpu0_ROB] entry:  76 instr_id: 2324798 fetch_issued: true fetch_completed: true scheduled: true executed: true completed: true num_reg_dependent: 0 num_mem_ops: 0 event: 824839
[cpu0_ROB] entry:  77 instr_id: 2324799 fetch_issued: true fetch_completed: true scheduled: true executed: true completed: true num_reg_dependent: 0 num_mem_ops: 0 event: 824839
[cpu0_ROB] entry:  78 instr_id: 2324800 fetch_issued: true fetch_completed: true scheduled: true executed: true completed: true num_reg_dependent: 0 num_mem_ops: 0 event: 824839
[cpu0_ROB] entry:  79 instr_id: 2324801 fetch_issued: true fetch_completed: true scheduled: true executed: true completed: true num_reg_dependent: 0 num_mem_ops: 0 event: 824840
[cpu0_ROB] entry:  80 instr_id: 2324802 fetch_issued: true fetch_completed: true scheduled: true executed: true completed: true num_reg_dependent: 0 num_mem_ops: 0 event: 824840
[cpu0_ROB] entry:  81 instr_id: 2324803 fetch_issued: true fetch_completed: true scheduled: true executed: true completed: true num_reg_dependent: 0 num_mem_ops: 0 event: 824840
[cpu0_ROB] entry:  82 instr_id: 2324804 fetch_issued: true fetch_completed: true scheduled: true executed: true completed: true num_reg_dependent: 0 num_mem_ops: 0 event: 824840
[cpu0_ROB] entry:  83 instr_id: 2324805 fetch_issued: true fetch_completed: true scheduled: true executed: true completed: true num_reg_dependent: 0 num_mem_ops: 0 event: 824841
[cpu0_ROB] entry:  84 instr_id: 2324806 fetch_issued: true fetch_completed: true scheduled: true executed: true completed: true num_reg_dependent: 0 num_mem_ops: 0 event: 824841
[cpu0_ROB] entry:  85 instr_id: 2324807 fetch_issued: true fetch_completed: true scheduled: true executed: true completed: false num_reg_dependent: 0 num_mem_ops: 1 event: 824841
[cpu0_ROB] entry:  86 instr_id: 2324808 fetch_issued: true fetch_completed: true scheduled: true executed: true completed: true num_reg_dependent: 0 num_mem_ops: 0 event: 824841
[cpu0_ROB] entry:  87 instr_id: 2324809 fetch_issued: true fetch_completed: true scheduled: true executed: true completed: true num_reg_dependent: 0 num_mem_ops: 0 event: 824842
[cpu0_ROB] entry:  88 instr_id: 2324810 fetch_issued: true fetch_completed: true scheduled: true executed: true completed: true num_reg_dependent: 0 num_mem_ops: 0 event: 824842
[cpu0_ROB] entry:  89 instr_id: 2324811 fetch_issued: true fetch_completed: true scheduled: true executed: true completed: true num_reg_dependent: 0 num_mem_ops: 0 event: 824842
[cpu0_ROB] entry:  90 instr_id: 2324812 fetch_issued: true fetch_completed: true scheduled: true executed: true completed: false num_reg_dependent: 0 num_mem_ops: 1 event: 824842
[cpu0_ROB] entry:  91 instr_id: 2324813 fetch_issued: true fetch_completed: true scheduled: true executed: true completed: true num_reg_dependent: 0 num_mem_ops: 0 event: 824843
[cpu0_ROB] entry:  92 instr_id: 2324814 fetch_issued: true fetch_completed: true scheduled: true executed: true completed: true num_reg_dependent: 0 num_mem_ops: 0 event: 824843
[cpu0_ROB] entry:  93 instr_id: 2324815 fetch_issued: true fetch_completed: true scheduled: true executed: true completed: true num_reg_dependent: 0 num_mem_ops: 0 event: 824843
[cpu0_ROB] entry:  94 instr_id: 2324816 fetch_issued: true fetch_completed: true scheduled: true executed: true completed: true num_reg_dependent: 0 num_mem_ops: 0 event: 824843
[cpu0_ROB] entry:  95 instr_id: 2324817 fetch_issued: true fetch_completed: true scheduled: true executed: true completed: true num_reg_dependent: 0 num_mem_ops: 0 event: 824844
[cpu0_ROB] entry:  96 instr_id: 2324818 fetch_issued: true fetch_completed: true scheduled: true executed: true completed: true num_reg_dependent: 0 num_mem_ops: 0 event: 824844
[cpu0_ROB] entry:  97 instr_id: 2324819 fetch_issued: true fetch_completed: true scheduled: true executed: true completed: true num_reg_dependent: 0 num_mem_ops: 0 event: 824844
[cpu0_ROB] entry:  98 instr_id: 2324820 fetch_issued: true fetch_completed: true scheduled: true executed: true completed: true num_reg_dependent: 0 num_mem_ops: 0 event: 824844
[cpu0_ROB] entry:  99 instr_id: 2324821 fetch_issued: true fetch_completed: true scheduled: true executed: true completed: true num_reg_dependent: 0 num_mem_ops: 0 event: 824845
[cpu0_ROB] entry: 100 instr_id: 2324822 fetch_issued: true fetch_completed: true scheduled: true executed: true completed: true num_reg_dependent: 0 num_mem_ops: 0 event: 824845
[cpu0_ROB] entry: 101 instr_id: 2324823 fetch_issued: true fetch_completed: true scheduled: true executed: true completed: true num_reg_dependent: 0 num_mem_ops: 0 event: 824858
[cpu0_ROB] entry: 102 instr_id: 2324824 fetch_issued: true fetch_completed: true scheduled: true executed: true completed: true num_reg_dependent: 0 num_mem_ops: 0 event: 824858
[cpu0_ROB] entry: 103 instr_id: 2324825 fetch_issued: true fetch_completed: true scheduled: true executed: true completed: true num_reg_dependent: 0 num_mem_ops: 0 event: 824858
[cpu0_ROB] entry: 104 instr_id: 2324826 fetch_issued: true fetch_completed: true scheduled: true executed: true completed: true num_reg_dependent: 0 num_mem_ops: 0 event: 824858
[cpu0_ROB] entry: 105 instr_id: 2324827 fetch_issued: true fetch_completed: true scheduled: true executed: true completed: true num_reg_dependent: 0 num_mem_ops: 0 event: 824860
[cpu0_ROB] entry: 106 instr_id: 2324828 fetch_issued: true fetch_completed: true scheduled: true executed: true completed: true num_reg_dependent: 0 num_mem_ops: 0 event: 824860
[cpu0_ROB] entry: 107 instr_id: 2324829 fetch_issued: true fetch_completed: true scheduled: true executed: true completed: true num_reg_dependent: 0 num_mem_ops: 0 event: 824860
[cpu0_ROB] entry: 108 instr_id: 2324830 fetch_issued: true fetch_completed: true scheduled: true executed: true completed: true num_reg_dependent: 0 num_mem_ops: 0 event: 824860
[cpu0_ROB] entry: 109 instr_id: 2324831 fetch_issued: true fetch_completed: true scheduled: true executed: true completed: true num_reg_dependent: 0 num_mem_ops: 0 event: 824861
[cpu0_ROB] entry: 110 instr_id: 2324832 fetch_issued: true fetch_completed: true scheduled: true executed: true completed: true num_reg_dependent: 0 num_mem_ops: 0 event: 824861
[cpu0_ROB] entry: 111 instr_id: 2324833 fetch_issued: true fetch_completed: true scheduled: true executed: true completed: true num_reg_dependent: 0 num_mem_ops: 0 event: 824861
[cpu0_ROB] entry: 112 instr_id: 2324834 fetch_issued: true fetch_completed: true scheduled: true executed: true completed: true num_reg_dependent: 0 num_mem_ops: 0 event: 824861
[cpu0_ROB] entry: 113 instr_id: 2324835 fetch_issued: true fetch_completed: true scheduled: true executed: true completed: true num_reg_dependent: 0 num_mem_ops: 0 event: 824862
[cpu0_ROB] entry: 114 instr_id: 2324836 fetch_issued: true fetch_completed: true scheduled: true executed: true completed: true num_reg_dependent: 0 num_mem_ops: 0 event: 824862
[cpu0_ROB] entry: 115 instr_id: 2324837 fetch_issued: true fetch_completed: true scheduled: true executed: true completed: true num_reg_dependent: 0 num_mem_ops: 0 event: 824862
[cpu0_ROB] entry: 116 instr_id: 2324838 fetch_issued: true fetch_completed: true scheduled: true executed: true completed: true num_reg_dependent: 0 num_mem_ops: 0 event: 824862
[cpu0_ROB] entry: 117 instr_id: 2324839 fetch_issued: true fetch_completed: true scheduled: true executed: true completed: true num_reg_dependent: 0 num_mem_ops: 0 event: 824863
[cpu0_ROB] entry: 118 instr_id: 2324840 fetch_issued: true fetch_completed: true scheduled: true executed: true completed: true num_reg_dependent: 0 num_mem_ops: 0 event: 824863
[cpu0_ROB] entry: 119 instr_id: 2324841 fetch_issued: true fetch_completed: true scheduled: true executed: true completed: true num_reg_dependent: 0 num_mem_ops: 0 event: 824863
[cpu0_ROB] entry: 120 instr_id: 2324842 fetch_issued: true fetch_completed: true scheduled: true executed: true completed: true num_reg_dependent: 0 num_mem_ops: 0 event: 824863
[cpu0_ROB] entry: 121 instr_id: 2324843 fetch_issued: true fetch_completed: true scheduled: true executed: true completed: true num_reg_dependent: 0 num_mem_ops: 0 event: 824864
[cpu0_ROB] entry: 122 instr_id: 2324844 fetch_issued: true fetch_completed: true scheduled: true executed: true completed: true num_reg_dependent: 0 num_mem_ops: 0 event: 824864
[cpu0_ROB] entry: 123 instr_id: 2324845 fetch_issued: true fetch_completed: true scheduled: true executed: true completed: true num_reg_dependent: 0 num_mem_ops: 0 event: 824864
[cpu0_ROB] entry: 124 instr_id: 2324846 fetch_issued: true fetch_completed: true scheduled: true executed: true completed: true num_reg_dependent: 0 num_mem_ops: 0 event: 824864
[cpu0_ROB] entry: 125 instr_id: 2324847 fetch_issued: true fetch_completed: true scheduled: true executed: true completed: true num_reg_dependent: 0 num_mem_ops: 0 event: 824865
[cpu0_ROB] entry: 126 instr_id: 2324848 fetch_issued: true fetch_completed: true scheduled: true executed: true completed: true num_reg_dependent: 0 num_mem_ops: 0 event: 824865
[cpu0_ROB] entry: 127 instr_id: 2324849 fetch_issued: true fetch_completed: true scheduled: true executed: true completed: true num_reg_dependent: 0 num_mem_ops: 0 event: 824865
[cpu0_ROB] entry: 128 instr_id: 2324850 fetch_issued: true fetch_completed: true scheduled: true executed: true completed: true num_reg_dependent: 0 num_mem_ops: 0 event: 824865
[cpu0_ROB] entry: 129 instr_id: 2324851 fetch_issued: true fetch_completed: true scheduled: true executed: true completed: true num_reg_dependent: 0 num_mem_ops: 0 event: 824866
[cpu0_ROB] entry: 130 instr_id: 2324852 fetch_issued: true fetch_completed: true scheduled: true executed: true completed: false num_reg_dependent: 0 num_mem_ops: 1 event: 824866
[cpu0_ROB] entry: 131 instr_id: 2324853 fetch_issued: true fetch_completed: true scheduled: true executed: true completed: true num_reg_dependent: 0 num_mem_ops: 0 event: 824866
[cpu0_ROB] entry: 132 instr_id: 2324854 fetch_issued: true fetch_completed: true scheduled: true executed: true completed: true num_reg_dependent: 0 num_mem_ops: 0 event: 824866
[cpu0_ROB] entry: 133 instr_id: 2324855 fetch_issued: true fetch_completed: true scheduled: true executed: true completed: true num_reg_dependent: 0 num_mem_ops: 0 event: 824867
[cpu0_ROB] entry: 134 instr_id: 2324856 fetch_issued: true fetch_completed: true scheduled: true executed: true completed: true num_reg_dependent: 0 num_mem_ops: 0 event: 824867
[cpu0_ROB] entry: 135 instr_id: 2324857 fetch_issued: true fetch_completed: true scheduled: true executed: true completed: true num_reg_dependent: 0 num_mem_ops: 0 event: 824867
[cpu0_ROB] entry: 136 instr_id: 2324858 fetch_issued: true fetch_completed: true scheduled: true executed: true completed: true num_reg_dependent: 0 num_mem_ops: 0 event: 824867
[cpu0_ROB] entry: 137 instr_id: 2324859 fetch_issued: true fetch_completed: true scheduled: true executed: true completed: true num_reg_dependent: 0 num_mem_ops: 0 event: 824868
[cpu0_ROB] entry: 138 instr_id: 2324860 fetch_issued: true fetch_completed: true scheduled: true executed: true completed: true num_reg_dependent: 0 num_mem_ops: 0 event: 824868
[cpu0_ROB] entry: 139 instr_id: 2324861 fetch_issued: true fetch_completed: true scheduled: true executed: true completed: true num_reg_dependent: 0 num_mem_ops: 0 event: 824868
[cpu0_ROB] entry: 140 instr_id: 2324862 fetch_issued: true fetch_completed: true scheduled: true executed: true completed: true num_reg_dependent: 0 num_mem_ops: 0 event: 824868
[cpu0_ROB] entry: 141 instr_id: 2324863 fetch_issued: true fetch_completed: true scheduled: true executed: true completed: true num_reg_dependent: 0 num_mem_ops: 0 event: 824869
[cpu0_ROB] entry: 142 instr_id: 2324864 fetch_issued: true fetch_completed: true scheduled: true executed: true completed: true num_reg_dependent: 0 num_mem_ops: 0 event: 824869
[cpu0_ROB] entry: 143 instr_id: 2324865 fetch_issued: true fetch_completed: true scheduled: true executed: true completed: true num_reg_dependent: 0 num_mem_ops: 0 event: 824869
[cpu0_ROB] entry: 144 instr_id: 2324866 fetch_issued: true fetch_completed: true scheduled: true executed: true completed: true num_reg_dependent: 0 num_mem_ops: 0 event: 824869
[cpu0_ROB] entry: 145 instr_id: 2324867 fetch_issued: true fetch_completed: true scheduled: true executed: true completed: true num_reg_dependent: 0 num_mem_ops: 0 event: 824870
[cpu0_ROB] entry: 146 instr_id: 2324868 fetch_issued: true fetch_completed: true scheduled: true executed: true completed: true num_reg_dependent: 0 num_mem_ops: 0 event: 824870
[cpu0_ROB] entry: 147 instr_id: 2324869 fetch_issued: true fetch_completed: true scheduled: true executed: true completed: true num_reg_dependent: 0 num_mem_ops: 0 event: 824870
[cpu0_ROB] entry: 148 instr_id: 2324870 fetch_issued: true fetch_completed: true scheduled: true executed: true completed: true num_reg_dependent: 0 num_mem_ops: 0 event: 824870
[cpu0_ROB] entry: 149 instr_id: 2324871 fetch_issued: true fetch_completed: true scheduled: true executed: true completed: true num_reg_dependent: 0 num_mem_ops: 0 event: 824871
[cpu0_ROB] entry: 150 instr_id: 2324872 fetch_issued: true fetch_completed: true scheduled: true executed: true completed: true num_reg_dependent: 0 num_mem_ops: 0 event: 824871
[cpu0_ROB] entry: 151 instr_id: 2324873 fetch_issued: true fetch_completed: true scheduled: true executed: true completed: true num_reg_dependent: 0 num_mem_ops: 0 event: 824871
[cpu0_ROB] entry: 152 instr_id: 2324874 fetch_issued: true fetch_completed: true scheduled: true executed: true completed: true num_reg_dependent: 0 num_mem_ops: 0 event: 824871
[cpu0_ROB] entry: 153 instr_id: 2324875 fetch_issued: true fetch_completed: true scheduled: true executed: true completed: true num_reg_dependent: 0 num_mem_ops: 0 event: 824872
[cpu0_ROB] entry: 154 instr_id: 2324876 fetch_issued: true fetch_completed: true scheduled: true executed: true completed: true num_reg_dependent: 0 num_mem_ops: 0 event: 824872
[cpu0_ROB] entry: 155 instr_id: 2324877 fetch_issued: true fetch_completed: true scheduled: true executed: true completed: false num_reg_dependent: 0 num_mem_ops: 1 event: 824872
[cpu0_ROB] entry: 156 instr_id: 2324878 fetch_issued: true fetch_completed: true scheduled: true executed: true completed: true num_reg_dependent: 0 num_mem_ops: 0 event: 824872
[cpu0_ROB] entry: 157 instr_id: 2324879 fetch_issued: true fetch_completed: true scheduled: true executed: true completed: true num_reg_dependent: 0 num_mem_ops: 0 event: 824873
[cpu0_ROB] entry: 158 instr_id: 2324880 fetch_issued: true fetch_completed: true scheduled: true executed: true completed: true num_reg_dependent: 0 num_mem_ops: 0 event: 824873
[cpu0_ROB] entry: 159 instr_id: 2324881 fetch_issued: true fetch_completed: true scheduled: true executed: true completed: true num_reg_dependent: 0 num_mem_ops: 0 event: 824873
[cpu0_ROB] entry: 160 instr_id: 2324882 fetch_issued: true fetch_completed: true scheduled: true executed: true completed: true num_reg_dependent: 0 num_mem_ops: 0 event: 824873
[cpu0_ROB] entry: 161 instr_id: 2324883 fetch_issued: true fetch_completed: true scheduled: true executed: true completed: true num_reg_dependent: 0 num_mem_ops: 0 event: 824874
[cpu0_ROB] entry: 162 instr_id: 2324884 fetch_issued: true fetch_completed: true scheduled: true executed: true completed: true num_reg_dependent: 0 num_mem_ops: 0 event: 824874
[cpu0_ROB] entry: 163 instr_id: 2324885 fetch_issued: true fetch_completed: true scheduled: true executed: true completed: true num_reg_dependent: 0 num_mem_ops: 0 event: 824878
[cpu0_ROB] entry: 164 instr_id: 2324886 fetch_issued: true fetch_completed: true scheduled: true executed: true completed: true num_reg_dependent: 0 num_mem_ops: 0 event: 824878
[cpu0_ROB] entry: 165 instr_id: 2324887 fetch_issued: true fetch_completed: true scheduled: true executed: true completed: true num_reg_dependent: 0 num_mem_ops: 0 event: 824878
[cpu0_ROB] entry: 166 instr_id: 2324888 fetch_issued: true fetch_completed: true scheduled: true executed: true completed: true num_reg_dependent: 0 num_mem_ops: 0 event: 824878
[cpu0_ROB] entry: 167 instr_id: 2324889 fetch_issued: true fetch_completed: true scheduled: true executed: true completed: true num_reg_dependent: 0 num_mem_ops: 0 event: 824879
[cpu0_ROB] entry: 168 instr_id: 2324890 fetch_issued: true fetch_completed: true scheduled: true executed: true completed: true num_reg_dependent: 0 num_mem_ops: 0 event: 824879
[cpu0_ROB] entry: 169 instr_id: 2324891 fetch_issued: true fetch_completed: true scheduled: true executed: true completed: true num_reg_dependent: 0 num_mem_ops: 0 event: 824879
[cpu0_ROB] entry: 170 instr_id: 2324892 fetch_issued: true fetch_completed: true scheduled: true executed: true completed: true num_reg_dependent: 0 num_mem_ops: 0 event: 824879
[cpu0_ROB] entry: 171 instr_id: 2324893 fetch_issued: true fetch_completed: true scheduled: true executed: true completed: true num_reg_dependent: 0 num_mem_ops: 0 event: 824880
[cpu0_ROB] entry: 172 instr_id: 2324894 fetch_issued: true fetch_completed: true scheduled: true executed: true completed: true num_reg_dependent: 0 num_mem_ops: 0 event: 824880
[cpu0_ROB] entry: 173 instr_id: 2324895 fetch_issued: true fetch_completed: true scheduled: true executed: true completed: true num_reg_dependent: 0 num_mem_ops: 0 event: 824880
[cpu0_ROB] entry: 174 instr_id: 2324896 fetch_issued: true fetch_completed: true scheduled: true executed: true completed: true num_reg_dependent: 0 num_mem_ops: 0 event: 824880
[cpu0_ROB] entry: 175 instr_id: 2324897 fetch_issued: true fetch_completed: true scheduled: true executed: true completed: true num_reg_dependent: 0 num_mem_ops: 0 event: 824881
[cpu0_ROB] entry: 176 instr_id: 2324898 fetch_issued: true fetch_completed: true scheduled: true executed: true completed: true num_reg_dependent: 0 num_mem_ops: 0 event: 824881
[cpu0_ROB] entry: 177 instr_id: 2324899 fetch_issued: true fetch_completed: true scheduled: true executed: true completed: true num_reg_dependent: 0 num_mem_ops: 0 event: 824881
[cpu0_ROB] entry: 178 instr_id: 2324900 fetch_issued: true fetch_completed: true scheduled: true executed: true completed: true num_reg_dependent: 0 num_mem_ops: 0 event: 824881
[cpu0_ROB] entry: 179 instr_id: 2324901 fetch_issued: true fetch_completed: true scheduled: true executed: true completed: true num_reg_dependent: 0 num_mem_ops: 0 event: 824882
[cpu0_ROB] entry: 180 instr_id: 2324902 fetch_issued: true fetch_completed: true scheduled: true executed: true completed: false num_reg_dependent: 0 num_mem_ops: 1 event: 824882
[cpu0_ROB] entry: 181 instr_id: 2324903 fetch_issued: true fetch_completed: true scheduled: true executed: true completed: true num_reg_dependent: 0 num_mem_ops: 0 event: 824882
[cpu0_ROB] entry: 182 instr_id: 2324904 fetch_issued: true fetch_completed: true scheduled: true executed: true completed: true num_reg_dependent: 0 num_mem_ops: 0 event: 824882
[cpu0_ROB] entry: 183 instr_id: 2324905 fetch_issued: true fetch_completed: true scheduled: true executed: true completed: true num_reg_dependent: 0 num_mem_ops: 0 event: 824883
[cpu0_ROB] entry: 184 instr_id: 2324906 fetch_issued: true fetch_completed: true scheduled: true executed: true completed: true num_reg_dependent: 0 num_mem_ops: 0 event: 824883
[cpu0_ROB] entry: 185 instr_id: 2324907 fetch_issued: true fetch_completed: true scheduled: true executed: true completed: true num_reg_dependent: 0 num_mem_ops: 0 event: 824883
[cpu0_ROB] entry: 186 instr_id: 2324908 fetch_issued: true fetch_completed: true scheduled: true executed: true completed: true num_reg_dependent: 0 num_mem_ops: 0 event: 824883
[cpu0_ROB] entry: 187 instr_id: 2324909 fetch_issued: true fetch_completed: true scheduled: true executed: true completed: true num_reg_dependent: 0 num_mem_ops: 0 event: 824884
[cpu0_ROB] entry: 188 instr_id: 2324910 fetch_issued: true fetch_completed: true scheduled: true executed: true completed: true num_reg_dependent: 0 num_mem_ops: 0 event: 824895
[cpu0_ROB] entry: 189 instr_id: 2324911 fetch_issued: true fetch_completed: true scheduled: true executed: true completed: true num_reg_dependent: 0 num_mem_ops: 0 event: 824895
[cpu0_ROB] entry: 190 instr_id: 2324912 fetch_issued: true fetch_completed: true scheduled: true executed: true completed: true num_reg_dependent: 0 num_mem_ops: 0 event: 824895
[cpu0_ROB] entry: 191 instr_id: 2324913 fetch_issued: true fetch_completed: true scheduled: true executed: true completed: true num_reg_dependent: 0 num_mem_ops: 0 event: 824895
[cpu0_ROB] entry: 192 instr_id: 2324914 fetch_issued: true fetch_completed: true scheduled: true executed: true completed: true num_reg_dependent: 0 num_mem_ops: 0 event: 824896
[cpu0_ROB] entry: 193 instr_id: 2324915 fetch_issued: true fetch_completed: true scheduled: true executed: true completed: true num_reg_dependent: 0 num_mem_ops: 0 event: 824896
[cpu0_ROB] entry: 194 instr_id: 2324916 fetch_issued: true fetch_completed: true scheduled: true executed: true completed: true num_reg_dependent: 0 num_mem_ops: 0 event: 824896
[cpu0_ROB] entry: 195 instr_id: 2324917 fetch_issued: true fetch_completed: true scheduled: true executed: true completed: true num_reg_dependent: 0 num_mem_ops: 0 event: 824896
[cpu0_ROB] entry: 196 instr_id: 2324918 fetch_issued: true fetch_completed: true scheduled: true executed: true completed: true num_reg_dependent: 0 num_mem_ops: 0 event: 824897
[cpu0_ROB] entry: 197 instr_id: 2324919 fetch_issued: true fetch_completed: true scheduled: true executed: true completed: true num_reg_dependent: 0 num_mem_ops: 0 event: 824898
[cpu0_ROB] entry: 198 instr_id: 2324920 fetch_issued: true fetch_completed: true scheduled: true executed: true completed: true num_reg_dependent: 0 num_mem_ops: 0 event: 824898
[cpu0_ROB] entry: 199 instr_id: 2324921 fetch_issued: true fetch_completed: true scheduled: true executed: true completed: true num_reg_dependent: 0 num_mem_ops: 0 event: 824898
[cpu0_ROB] entry: 200 instr_id: 2324922 fetch_issued: true fetch_completed: true scheduled: true executed: true completed: true num_reg_dependent: 0 num_mem_ops: 0 event: 824898
[cpu0_ROB] entry: 201 instr_id: 2324923 fetch_issued: true fetch_completed: true scheduled: true executed: true completed: true num_reg_dependent: 0 num_mem_ops: 0 event: 824899
[cpu0_ROB] entry: 202 instr_id: 2324924 fetch_issued: true fetch_completed: true scheduled: true executed: true completed: true num_reg_dependent: 0 num_mem_ops: 0 event: 824899
[cpu0_ROB] entry: 203 instr_id: 2324925 fetch_issued: true fetch_completed: true scheduled: true executed: true completed: true num_reg_dependent: 0 num_mem_ops: 0 event: 824899
[cpu0_ROB] entry: 204 instr_id: 2324926 fetch_issued: true fetch_completed: true scheduled: true executed: true completed: true num_reg_dependent: 0 num_mem_ops: 0 event: 824913
[cpu0_ROB] entry: 205 instr_id: 2324927 fetch_issued: true fetch_completed: true scheduled: true executed: true completed: false num_reg_dependent: 0 num_mem_ops: 1 event: 824913
[cpu0_ROB] entry: 206 instr_id: 2324928 fetch_issued: true fetch_completed: true scheduled: true executed: true completed: true num_reg_dependent: 0 num_mem_ops: 0 event: 824913
[cpu0_ROB] entry: 207 instr_id: 2324929 fetch_issued: true fetch_completed: true scheduled: true executed: true completed: true num_reg_dependent: 0 num_mem_ops: 0 event: 824913
[cpu0_ROB] entry: 208 instr_id: 2324930 fetch_issued: true fetch_completed: true scheduled: true executed: true completed: true num_reg_dependent: 0 num_mem_ops: 0 event: 824914
[cpu0_ROB] entry: 209 instr_id: 2324931 fetch_issued: true fetch_completed: true scheduled: true executed: true completed: true num_reg_dependent: 0 num_mem_ops: 0 event: 824914
[cpu0_ROB] entry: 210 instr_id: 2324932 fetch_issued: true fetch_completed: true scheduled: true executed: true completed: true num_reg_dependent: 0 num_mem_ops: 0 event: 824914
[cpu0_ROB] entry: 211 instr_id: 2324933 fetch_issued: true fetch_completed: true scheduled: true executed: true completed: true num_reg_dependent: 0 num_mem_ops: 0 event: 824914
[cpu0_ROB] entry: 212 instr_id: 2324934 fetch_issued: true fetch_completed: true scheduled: true executed: true completed: true num_reg_dependent: 0 num_mem_ops: 0 event: 824915
[cpu0_ROB] entry: 213 instr_id: 2324935 fetch_issued: true fetch_completed: true scheduled: true executed: true completed: true num_reg_dependent: 0 num_mem_ops: 0 event: 824915
[cpu0_ROB] entry: 214 instr_id: 2324936 fetch_issued: true fetch_completed: true scheduled: true executed: true completed: true num_reg_dependent: 0 num_mem_ops: 0 event: 824915
[cpu0_ROB] entry: 215 instr_id: 2324937 fetch_issued: true fetch_completed: true scheduled: true executed: true completed: true num_reg_dependent: 0 num_mem_ops: 0 event: 824915
[cpu0_ROB] entry: 216 instr_id: 2324938 fetch_issued: true fetch_completed: true scheduled: true executed: true completed: true num_reg_dependent: 0 num_mem_ops: 0 event: 824916
[cpu0_ROB] entry: 217 instr_id: 2324939 fetch_issued: true fetch_completed: true scheduled: true executed: true completed: true num_reg_dependent: 0 num_mem_ops: 0 event: 824916
[cpu0_ROB] entry: 218 instr_id: 2324940 fetch_issued: true fetch_completed: true scheduled: true executed: true completed: true num_reg_dependent: 0 num_mem_ops: 0 event: 824916
[cpu0_ROB] entry: 219 instr_id: 2324941 fetch_issued: true fetch_completed: true scheduled: true executed: true completed: true num_reg_dependent: 0 num_mem_ops: 0 event: 824916
[cpu0_ROB] entry: 220 instr_id: 2324942 fetch_issued: true fetch_completed: true scheduled: true executed: true completed: true num_reg_dependent: 0 num_mem_ops: 0 event: 824917
[cpu0_ROB] entry: 221 instr_id: 2324943 fetch_issued: true fetch_completed: true scheduled: true executed: true completed: true num_reg_dependent: 0 num_mem_ops: 0 event: 824917
[cpu0_ROB] entry: 222 instr_id: 2324944 fetch_issued: true fetch_completed: true scheduled: true executed: true completed: true num_reg_dependent: 0 num_mem_ops: 0 event: 824917
[cpu0_ROB] entry: 223 instr_id: 2324945 fetch_issued: true fetch_completed: true scheduled: true executed: true completed: true num_reg_dependent: 0 num_mem_ops: 0 event: 824917
[cpu0_ROB] entry: 224 instr_id: 2324946 fetch_issued: true fetch_completed: true scheduled: true executed: true completed: true num_reg_dependent: 0 num_mem_ops: 0 event: 824918
[cpu0_ROB] entry: 225 instr_id: 2324947 fetch_issued: true fetch_completed: true scheduled: true executed: true completed: true num_reg_dependent: 0 num_mem_ops: 0 event: 824918
[cpu0_ROB] entry: 226 instr_id: 2324948 fetch_issued: true fetch_completed: true scheduled: true executed: true completed: true num_reg_dependent: 0 num_mem_ops: 0 event: 824918
[cpu0_ROB] entry: 227 instr_id: 2324949 fetch_issued: true fetch_completed: true scheduled: true executed: true completed: true num_reg_dependent: 0 num_mem_ops: 0 event: 824918
[cpu0_ROB] entry: 228 instr_id: 2324950 fetch_issued: true fetch_completed: true scheduled: true executed: true completed: true num_reg_dependent: 0 num_mem_ops: 0 event: 824919
[cpu0_ROB] entry: 229 instr_id: 2324951 fetch_issued: true fetch_completed: true scheduled: true executed: true completed: true num_reg_dependent: 0 num_mem_ops: 0 event: 824919
[cpu0_ROB] entry: 230 instr_id: 2324952 fetch_issued: true fetch_completed: true scheduled: true executed: true completed: true num_reg_dependent: 0 num_mem_ops: 0 event: 824919
[cpu0_ROB] entry: 231 instr_id: 2324953 fetch_issued: true fetch_completed: true scheduled: true executed: true completed: true num_reg_dependent: 0 num_mem_ops: 0 event: 824919
[cpu0_ROB] entry: 232 instr_id: 2324954 fetch_issued: true fetch_completed: true scheduled: true executed: true completed: true num_reg_dependent: 0 num_mem_ops: 0 event: 824920
[cpu0_ROB] entry: 233 instr_id: 2324955 fetch_issued: true fetch_completed: true scheduled: true executed: true completed: true num_reg_dependent: 0 num_mem_ops: 0 event: 824920
[cpu0_ROB] entry: 234 instr_id: 2324956 fetch_issued: true fetch_completed: true scheduled: true executed: true completed: true num_reg_dependent: 0 num_mem_ops: 0 event: 824920
[cpu0_ROB] entry: 235 instr_id: 2324957 fetch_issued: true fetch_completed: true scheduled: true executed: true completed: true num_reg_dependent: 0 num_mem_ops: 0 event: 824920
[cpu0_ROB] entry: 236 instr_id: 2324958 fetch_issued: true fetch_completed: true scheduled: true executed: true completed: true num_reg_dependent: 0 num_mem_ops: 0 event: 824921
[cpu0_ROB] entry: 237 instr_id: 2324959 fetch_issued: true fetch_completed: true scheduled: true executed: true completed: true num_reg_dependent: 0 num_mem_ops: 0 event: 824921
[cpu0_ROB] entry: 238 instr_id: 2324960 fetch_issued: true fetch_completed: true scheduled: true executed: true completed: true num_reg_dependent: 0 num_mem_ops: 0 event: 824921
[cpu0_ROB] entry: 239 instr_id: 2324961 fetch_issued: true fetch_completed: true scheduled: true executed: true completed: true num_reg_dependent: 0 num_mem_ops: 0 event: 824921
[cpu0_ROB] entry: 240 instr_id: 2324962 fetch_issued: true fetch_completed: true scheduled: true executed: true completed: true num_reg_dependent: 0 num_mem_ops: 0 event: 824922
[cpu0_ROB] entry: 241 instr_id: 2324963 fetch_issued: true fetch_completed: true scheduled: true executed: true completed: true num_reg_dependent: 0 num_mem_ops: 0 event: 824922
[cpu0_ROB] entry: 242 instr_id: 2324964 fetch_issued: true fetch_completed: true scheduled: true executed: true completed: true num_reg_dependent: 0 num_mem_ops: 0 event: 824922
[cpu0_ROB] entry: 243 instr_id: 2324965 fetch_issued: true fetch_completed: true scheduled: true executed: true completed: true num_reg_dependent: 0 num_mem_ops: 0 event: 824922
[cpu0_ROB] entry: 244 instr_id: 2324966 fetch_issued: true fetch_completed: true scheduled: true executed: true completed: true num_reg_dependent: 0 num_mem_ops: 0 event: 824923
[cpu0_ROB] entry: 245 instr_id: 2324967 fetch_issued: true fetch_completed: true scheduled: true executed: true completed: true num_reg_dependent: 0 num_mem_ops: 0 event: 824923
[cpu0_ROB] entry: 246 instr_id: 2324968 fetch_issued: true fetch_completed: true scheduled: true executed: true completed: true num_reg_dependent: 0 num_mem_ops: 0 event: 824923
[cpu0_ROB] entry: 247 instr_id: 2324969 fetch_issued: true fetch_completed: true scheduled: true executed: true completed: true num_reg_dependent: 0 num_mem_ops: 0 event: 824923
[cpu0_ROB] entry: 248 instr_id: 2324970 fetch_issued: true fetch_completed: true scheduled: true executed: true completed: true num_reg_dependent: 0 num_mem_ops: 0 event: 824924
[cpu0_ROB] entry: 249 instr_id: 2324971 fetch_issued: true fetch_completed: true scheduled: true executed: true completed: true num_reg_dependent: 0 num_mem_ops: 0 event: 824924
[cpu0_ROB] entry: 250 instr_id: 2324972 fetch_issued: true fetch_completed: true scheduled: true executed: true completed: true num_reg_dependent: 0 num_mem_ops: 0 event: 824924
[cpu0_ROB] entry: 251 instr_id: 2324973 fetch_issued: true fetch_completed: true scheduled: true executed: true completed: true num_reg_dependent: 0 num_mem_ops: 0 event: 824924
[cpu0_ROB] entry: 252 instr_id: 2324974 fetch_issued: true fetch_completed: true scheduled: true executed: true completed: true num_reg_dependent: 0 num_mem_ops: 0 event: 824925
[cpu0_ROB] entry: 253 instr_id: 2324975 fetch_issued: true fetch_completed: true scheduled: true executed: true completed: true num_reg_dependent: 0 num_mem_ops: 0 event: 824925
[cpu0_ROB] entry: 254 instr_id: 2324976 fetch_issued: true fetch_completed: true scheduled: true executed: true completed: true num_reg_dependent: 0 num_mem_ops: 0 event: 824925
[cpu0_ROB] entry: 255 instr_id: 2324977 fetch_issued: true fetch_completed: true scheduled: true executed: true completed: true num_reg_dependent: 0 num_mem_ops: 0 event: 824925
[cpu0_ROB] entry: 256 instr_id: 2324978 fetch_issued: true fetch_completed: true scheduled: true executed: true completed: true num_reg_dependent: 0 num_mem_ops: 0 event: 824926
[cpu0_ROB] entry: 257 instr_id: 2324979 fetch_issued: true fetch_completed: true scheduled: true executed: true completed: true num_reg_dependent: 0 num_mem_ops: 0 event: 824926
[cpu0_ROB] entry: 258 instr_id: 2324980 fetch_issued: true fetch_completed: true scheduled: true executed: true completed: true num_reg_dependent: 0 num_mem_ops: 0 event: 824926
[cpu0_ROB] entry: 259 instr_id: 2324981 fetch_issued: true fetch_completed: true scheduled: true executed: true completed: true num_reg_dependent: 0 num_mem_ops: 0 event: 824926
[cpu0_ROB] entry: 260 instr_id: 2324982 fetch_issued: true fetch_completed: true scheduled: true executed: true completed: true num_reg_dependent: 0 num_mem_ops: 0 event: 824927
[cpu0_ROB] entry: 261 instr_id: 2324983 fetch_issued: true fetch_completed: true scheduled: true executed: true completed: true num_reg_dependent: 0 num_mem_ops: 0 event: 824927
[cpu0_ROB] entry: 262 instr_id: 2324984 fetch_issued: true fetch_completed: true scheduled: true executed: true completed: true num_reg_dependent: 0 num_mem_ops: 0 event: 824927
[cpu0_ROB] entry: 263 instr_id: 2324985 fetch_issued: true fetch_completed: true scheduled: true executed: true completed: true num_reg_dependent: 0 num_mem_ops: 0 event: 824927
[cpu0_ROB] entry: 264 instr_id: 2324986 fetch_issued: true fetch_completed: true scheduled: true executed: true completed: true num_reg_dependent: 0 num_mem_ops: 0 event: 824928
[cpu0_ROB] entry: 265 instr_id: 2324987 fetch_issued: true fetch_completed: true scheduled: true executed: true completed: true num_reg_dependent: 0 num_mem_ops: 0 event: 824928
[cpu0_ROB] entry: 266 instr_id: 2324988 fetch_issued: true fetch_completed: true scheduled: true executed: true completed: true num_reg_dependent: 0 num_mem_ops: 0 event: 824928
[cpu0_ROB] entry: 267 instr_id: 2324989 fetch_issued: true fetch_completed: true scheduled: true executed: true completed: true num_reg_dependent: 0 num_mem_ops: 0 event: 824928
[cpu0_ROB] entry: 268 instr_id: 2324990 fetch_issued: true fetch_completed: true scheduled: true executed: true completed: true num_reg_dependent: 0 num_mem_ops: 0 event: 824929
[cpu0_ROB] entry: 269 instr_id: 2324991 fetch_issued: true fetch_completed: true scheduled: true executed: true completed: true num_reg_dependent: 0 num_mem_ops: 0 event: 824929
[cpu0_ROB] entry: 270 instr_id: 2324992 fetch_issued: true fetch_completed: true scheduled: true executed: true completed: true num_reg_dependent: 0 num_mem_ops: 0 event: 824929
[cpu0_ROB] entry: 271 instr_id: 2324993 fetch_issued: true fetch_completed: true scheduled: true executed: true completed: true num_reg_dependent: 0 num_mem_ops: 0 event: 824929
[cpu0_ROB] entry: 272 instr_id: 2324994 fetch_issued: true fetch_completed: true scheduled: true executed: true completed: true num_reg_dependent: 0 num_mem_ops: 0 event: 824930
[cpu0_ROB] entry: 273 instr_id: 2324995 fetch_issued: true fetch_completed: true scheduled: true executed: true completed: true num_reg_dependent: 0 num_mem_ops: 0 event: 824930
[cpu0_ROB] entry: 274 instr_id: 2324996 fetch_issued: true fetch_completed: true scheduled: true executed: true completed: true num_reg_dependent: 0 num_mem_ops: 0 event: 824930
[cpu0_ROB] entry: 275 instr_id: 2324997 fetch_issued: true fetch_completed: true scheduled: true executed: true completed: true num_reg_dependent: 0 num_mem_ops: 0 event: 824930
[cpu0_ROB] entry: 276 instr_id: 2324998 fetch_issued: true fetch_completed: true scheduled: true executed: true completed: true num_reg_dependent: 0 num_mem_ops: 0 event: 824931
[cpu0_ROB] entry: 277 instr_id: 2324999 fetch_issued: true fetch_completed: true scheduled: true executed: true completed: true num_reg_dependent: 0 num_mem_ops: 0 event: 824931
[cpu0_ROB] entry: 278 instr_id: 2325000 fetch_issued: true fetch_completed: true scheduled: true executed: true completed: true num_reg_dependent: 0 num_mem_ops: 0 event: 824931
[cpu0_ROB] entry: 279 instr_id: 2325001 fetch_issued: true fetch_completed: true scheduled: true executed: true completed: true num_reg_dependent: 0 num_mem_ops: 0 event: 824931
[cpu0_ROB] entry: 280 instr_id: 2325002 fetch_issued: true fetch_completed: true scheduled: true executed: true completed: true num_reg_dependent: 0 num_mem_ops: 0 event: 824932
[cpu0_ROB] entry: 281 instr_id: 2325003 fetch_issued: true fetch_completed: true scheduled: true executed: true completed: true num_reg_dependent: 0 num_mem_ops: 0 event: 824932
[cpu0_ROB] entry: 282 instr_id: 2325004 fetch_issued: true fetch_completed: true scheduled: true executed: true completed: true num_reg_dependent: 0 num_mem_ops: 0 event: 824932
[cpu0_ROB] entry: 283 instr_id: 2325005 fetch_issued: true fetch_completed: true scheduled: true executed: true completed: true num_reg_dependent: 0 num_mem_ops: 0 event: 824932
[cpu0_ROB] entry: 284 instr_id: 2325006 fetch_issued: true fetch_completed: true scheduled: true executed: true completed: true num_reg_dependent: 0 num_mem_ops: 0 event: 824933
[cpu0_ROB] entry: 285 instr_id: 2325007 fetch_issued: true fetch_completed: true scheduled: true executed: true completed: true num_reg_dependent: 0 num_mem_ops: 0 event: 824933
[cpu0_ROB] entry: 286 instr_id: 2325008 fetch_issued: true fetch_completed: true scheduled: true executed: true completed: true num_reg_dependent: 0 num_mem_ops: 0 event: 824933
[cpu0_ROB] entry: 287 instr_id: 2325009 fetch_issued: true fetch_completed: true scheduled: true executed: true completed: true num_reg_dependent: 0 num_mem_ops: 0 event: 824933
[cpu0_ROB] entry: 288 instr_id: 2325010 fetch_issued: true fetch_completed: true scheduled: true executed: true completed: true num_reg_dependent: 0 num_mem_ops: 0 event: 824934
[cpu0_ROB] entry: 289 instr_id: 2325011 fetch_issued: true fetch_completed: true scheduled: true executed: true completed: true num_reg_dependent: 0 num_mem_ops: 0 event: 824934
[cpu0_ROB] entry: 290 instr_id: 2325012 fetch_issued: true fetch_completed: true scheduled: true executed: true completed: true num_reg_dependent: 0 num_mem_ops: 0 event: 824934
[cpu0_ROB] entry: 291 instr_id: 2325013 fetch_issued: true fetch_completed: true scheduled: true executed: true completed: true num_reg_dependent: 0 num_mem_ops: 0 event: 824934
[cpu0_ROB] entry: 292 instr_id: 2325014 fetch_issued: true fetch_completed: true scheduled: true executed: true completed: true num_reg_dependent: 0 num_mem_ops: 0 event: 824935
[cpu0_ROB] entry: 293 instr_id: 2325015 fetch_issued: true fetch_completed: true scheduled: true executed: true completed: true num_reg_dependent: 0 num_mem_ops: 0 event: 824935
[cpu0_ROB] entry: 294 instr_id: 2325016 fetch_issued: true fetch_completed: true scheduled: true executed: true completed: true num_reg_dependent: 0 num_mem_ops: 0 event: 824935
[cpu0_ROB] entry: 295 instr_id: 2325017 fetch_issued: true fetch_completed: true scheduled: true executed: true completed: true num_reg_dependent: 0 num_mem_ops: 0 event: 824935
[cpu0_ROB] entry: 296 instr_id: 2325018 fetch_issued: true fetch_completed: true scheduled: true executed: true completed: true num_reg_dependent: 0 num_mem_ops: 0 event: 824936
[cpu0_ROB] entry: 297 instr_id: 2325019 fetch_issued: true fetch_completed: true scheduled: true executed: true completed: true num_reg_dependent: 0 num_mem_ops: 0 event: 824936
[cpu0_ROB] entry: 298 instr_id: 2325020 fetch_issued: true fetch_completed: true scheduled: true executed: true completed: true num_reg_dependent: 0 num_mem_ops: 0 event: 824936
[cpu0_ROB] entry: 299 instr_id: 2325021 fetch_issued: true fetch_completed: true scheduled: true executed: true completed: true num_reg_dependent: 0 num_mem_ops: 0 event: 824936
[cpu0_ROB] entry: 300 instr_id: 2325022 fetch_issued: true fetch_completed: true scheduled: true executed: true completed: true num_reg_dependent: 0 num_mem_ops: 0 event: 824937
[cpu0_ROB] entry: 301 instr_id: 2325023 fetch_issued: true fetch_completed: true scheduled: true executed: true completed: true num_reg_dependent: 0 num_mem_ops: 0 event: 824937
[cpu0_ROB] entry: 302 instr_id: 2325024 fetch_issued: true fetch_completed: true scheduled: true executed: true completed: true num_reg_dependent: 0 num_mem_ops: 0 event: 824937
[cpu0_ROB] entry: 303 instr_id: 2325025 fetch_issued: true fetch_completed: true scheduled: true executed: true completed: true num_reg_dependent: 0 num_mem_ops: 0 event: 824937
[cpu0_ROB] entry: 304 instr_id: 2325026 fetch_issued: true fetch_completed: true scheduled: true executed: true completed: true num_reg_dependent: 0 num_mem_ops: 0 event: 824938
[cpu0_ROB] entry: 305 instr_id: 2325027 fetch_issued: true fetch_completed: true scheduled: true executed: true completed: true num_reg_dependent: 0 num_mem_ops: 0 event: 824938
[cpu0_ROB] entry: 306 instr_id: 2325028 fetch_issued: true fetch_completed: true scheduled: true executed: true completed: true num_reg_dependent: 0 num_mem_ops: 0 event: 824938
[cpu0_ROB] entry: 307 instr_id: 2325029 fetch_issued: true fetch_completed: true scheduled: true executed: true completed: true num_reg_dependent: 0 num_mem_ops: 0 event: 824938
[cpu0_ROB] entry: 308 instr_id: 2325030 fetch_issued: true fetch_completed: true scheduled: true executed: true completed: true num_reg_dependent: 0 num_mem_ops: 0 event: 824939
[cpu0_ROB] entry: 309 instr_id: 2325031 fetch_issued: true fetch_completed: true scheduled: true executed: true completed: true num_reg_dependent: 0 num_mem_ops: 0 event: 824939
[cpu0_ROB] entry: 310 instr_id: 2325032 fetch_issued: true fetch_completed: true scheduled: true executed: true completed: true num_reg_dependent: 0 num_mem_ops: 0 event: 824939
[cpu0_ROB] entry: 311 instr_id: 2325033 fetch_issued: true fetch_completed: true scheduled: true executed: true completed: true num_reg_dependent: 0 num_mem_ops: 0 event: 824939
[cpu0_ROB] entry: 312 instr_id: 2325034 fetch_issued: true fetch_completed: true scheduled: true executed: true completed: true num_reg_dependent: 0 num_mem_ops: 0 event: 824940
[cpu0_ROB] entry: 313 instr_id: 2325035 fetch_issued: true fetch_completed: true scheduled: true executed: true completed: true num_reg_dependent: 0 num_mem_ops: 0 event: 824940
[cpu0_ROB] entry: 314 instr_id: 2325036 fetch_issued: true fetch_completed: true scheduled: true executed: true completed: true num_reg_dependent: 0 num_mem_ops: 0 event: 824940
[cpu0_ROB] entry: 315 instr_id: 2325037 fetch_issued: true fetch_completed: true scheduled: true executed: true completed: true num_reg_dependent: 0 num_mem_ops: 0 event: 824940
[cpu0_ROB] entry: 316 instr_id: 2325038 fetch_issued: true fetch_completed: true scheduled: true executed: true completed: true num_reg_dependent: 0 num_mem_ops: 0 event: 824941
[cpu0_ROB] entry: 317 instr_id: 2325039 fetch_issued: true fetch_completed: true scheduled: true executed: true completed: true num_reg_dependent: 0 num_mem_ops: 0 event: 824941
[cpu0_ROB] entry: 318 instr_id: 2325040 fetch_issued: true fetch_completed: true scheduled: true executed: true completed: true num_reg_dependent: 0 num_mem_ops: 0 event: 824941
[cpu0_ROB] entry: 319 instr_id: 2325041 fetch_issued: true fetch_completed: true scheduled: true executed: true completed: true num_reg_dependent: 0 num_mem_ops: 0 event: 824941
[cpu0_ROB] entry: 320 instr_id: 2325042 fetch_issued: true fetch_completed: true scheduled: true executed: true completed: true num_reg_dependent: 0 num_mem_ops: 0 event: 824942
[cpu0_ROB] entry: 321 instr_id: 2325043 fetch_issued: true fetch_completed: true scheduled: true executed: true completed: true num_reg_dependent: 0 num_mem_ops: 0 event: 824942
[cpu0_ROB] entry: 322 instr_id: 2325044 fetch_issued: true fetch_completed: true scheduled: true executed: true completed: true num_reg_dependent: 0 num_mem_ops: 0 event: 824942
[cpu0_ROB] entry: 323 instr_id: 2325045 fetch_issued: true fetch_completed: true scheduled: true executed: true completed: true num_reg_dependent: 0 num_mem_ops: 0 event: 824942
[cpu0_ROB] entry: 324 instr_id: 2325046 fetch_issued: true fetch_completed: true scheduled: true executed: true completed: true num_reg_dependent: 0 num_mem_ops: 0 event: 824943
[cpu0_ROB] entry: 325 instr_id: 2325047 fetch_issued: true fetch_completed: true scheduled: true executed: true completed: true num_reg_dependent: 0 num_mem_ops: 0 event: 824958
[cpu0_ROB] entry: 326 instr_id: 2325048 fetch_issued: true fetch_completed: true scheduled: true executed: true completed: true num_reg_dependent: 0 num_mem_ops: 0 event: 824958
[cpu0_ROB] entry: 327 instr_id: 2325049 fetch_issued: true fetch_completed: true scheduled: true executed: true completed: true num_reg_dependent: 0 num_mem_ops: 0 event: 824958
[cpu0_ROB] entry: 328 instr_id: 2325050 fetch_issued: true fetch_completed: true scheduled: true executed: true completed: true num_reg_dependent: 0 num_mem_ops: 0 event: 824958
[cpu0_ROB] entry: 329 instr_id: 2325051 fetch_issued: true fetch_completed: true scheduled: true executed: true completed: true num_reg_dependent: 0 num_mem_ops: 0 event: 824959
[cpu0_ROB] entry: 330 instr_id: 2325052 fetch_issued: true fetch_completed: true scheduled: true executed: true completed: true num_reg_dependent: 0 num_mem_ops: 0 event: 824959
[cpu0_ROB] entry: 331 instr_id: 2325053 fetch_issued: true fetch_completed: true scheduled: true executed: true completed: true num_reg_dependent: 0 num_mem_ops: 0 event: 824959
[cpu0_ROB] entry: 332 instr_id: 2325054 fetch_issued: true fetch_completed: true scheduled: true executed: true completed: true num_reg_dependent: 0 num_mem_ops: 0 event: 824959
[cpu0_ROB] entry: 333 instr_id: 2325055 fetch_issued: true fetch_completed: true scheduled: true executed: true completed: false num_reg_dependent: 0 num_mem_ops: 1 event: 824960
[cpu0_ROB] entry: 334 instr_id: 2325056 fetch_issued: true fetch_completed: true scheduled: true executed: true completed: true num_reg_dependent: 0 num_mem_ops: 0 event: 824960
[cpu0_ROB] entry: 335 instr_id: 2325057 fetch_issued: true fetch_completed: true scheduled: true executed: true completed: true num_reg_dependent: 0 num_mem_ops: 0 event: 824960
[cpu0_ROB] entry: 336 instr_id: 2325058 fetch_issued: true fetch_completed: true scheduled: true executed: true completed: true num_reg_dependent: 0 num_mem_ops: 0 event: 824960
[cpu0_ROB] entry: 337 instr_id: 2325059 fetch_issued: true fetch_completed: true scheduled: true executed: true completed: true num_reg_dependent: 0 num_mem_ops: 0 event: 824961
[cpu0_ROB] entry: 338 instr_id: 2325060 fetch_issued: true fetch_completed: true scheduled: true executed: true completed: true num_reg_dependent: 0 num_mem_ops: 0 event: 824961
[cpu0_ROB] entry: 339 instr_id: 2325061 fetch_issued: true fetch_completed: true scheduled: true executed: true completed: true num_reg_dependent: 0 num_mem_ops: 0 event: 824961
[cpu0_ROB] entry: 340 instr_id: 2325062 fetch_issued: true fetch_completed: true scheduled: true executed: true completed: true num_reg_dependent: 0 num_mem_ops: 0 event: 824961
[cpu0_ROB] entry: 341 instr_id: 2325063 fetch_issued: true fetch_completed: true scheduled: true executed: true completed: true num_reg_dependent: 0 num_mem_ops: 0 event: 824962
[cpu0_ROB] entry: 342 instr_id: 2325064 fetch_issued: true fetch_completed: true scheduled: true executed: true completed: true num_reg_dependent: 0 num_mem_ops: 0 event: 824962
[cpu0_ROB] entry: 343 instr_id: 2325065 fetch_issued: true fetch_completed: true scheduled: true executed: true completed: true num_reg_dependent: 0 num_mem_ops: 0 event: 824962
[cpu0_ROB] entry: 344 instr_id: 2325066 fetch_issued: true fetch_completed: true scheduled: true executed: true completed: true num_reg_dependent: 0 num_mem_ops: 0 event: 824962
[cpu0_ROB] entry: 345 instr_id: 2325067 fetch_issued: true fetch_completed: true scheduled: true executed: true completed: true num_reg_dependent: 0 num_mem_ops: 0 event: 824963
[cpu0_ROB] entry: 346 instr_id: 2325068 fetch_issued: true fetch_completed: true scheduled: true executed: true completed: true num_reg_dependent: 0 num_mem_ops: 0 event: 824963
[...]
Phys reg:  49	 Arch reg:   0	 Producer: 0	 Valid: false	 Busy: false
Phys reg:  50	 Arch reg:   0	 Producer: 0	 Valid: false	 Busy: false
Phys reg:  51	 Arch reg:   0	 Producer: 0	 Valid: false	 Busy: false
Phys reg:  52	 Arch reg:   0	 Producer: 0	 Valid: false	 Busy: false
Phys reg:  53	 Arch reg:   0	 Producer: 0	 Valid: false	 Busy: false
Phys reg:  54	 Arch reg:   0	 Producer: 0	 Valid: false	 Busy: false
Phys reg:  55	 Arch reg:   0	 Producer: 0	 Valid: false	 Busy: false
Phys reg:  56	 Arch reg:   0	 Producer: 0	 Valid: false	 Busy: false
Phys reg:  57	 Arch reg:   0	 Producer: 0	 Valid: false	 Busy: false
Phys reg:  58	 Arch reg:   0	 Producer: 0	 Valid: false	 Busy: false
Phys reg:  59	 Arch reg:   0	 Producer: 0	 Valid: false	 Busy: false
Phys reg:  60	 Arch reg:   0	 Producer: 0	 Valid: false	 Busy: false
Phys reg:  61	 Arch reg:   0	 Producer: 0	 Valid: false	 Busy: false
Phys reg:  62	 Arch reg:   0	 Producer: 0	 Valid: false	 Busy: false
Phys reg:  63	 Arch reg:   0	 Producer: 0	 Valid: false	 Busy: false
Phys reg:  64	 Arch reg:   0	 Producer: 0	 Valid: false	 Busy: false
Phys reg:  65	 Arch reg:   0	 Producer: 0	 Valid: false	 Busy: false
Phys reg:  66	 Arch reg:   0	 Producer: 0	 Valid: false	 Busy: false
Phys reg:  67	 Arch reg:   0	 Producer: 0	 Valid: false	 Busy: false
Phys reg:  68	 Arch reg:   0	 Producer: 0	 Valid: false	 Busy: false
Phys reg:  69	 Arch reg:   0	 Producer: 0	 Valid: false	 Busy: false
Phys reg:  70	 Arch reg:   0	 Producer: 0	 Valid: false	 Busy: false
Phys reg:  71	 Arch reg:   0	 Producer: 0	 Valid: false	 Busy: false
Phys reg:  72	 Arch reg:   0	 Producer: 0	 Valid: false	 Busy: false
Phys reg:  73	 Arch reg:   0	 Producer: 0	 Valid: false	 Busy: false
Phys reg:  74	 Arch reg:   0	 Producer: 0	 Valid: false	 Busy: false
Phys reg:  75	 Arch reg:   0	 Producer: 0	 Valid: false	 Busy: false
Phys reg:  76	 Arch reg:   0	 Producer: 0	 Valid: false	 Busy: false
Phys reg:  77	 Arch reg:   0	 Producer: 0	 Valid: false	 Busy: false
Phys reg:  78	 Arch reg:   0	 Producer: 0	 Valid: false	 Busy: false
Phys reg:  79	 Arch reg:   0	 Producer: 0	 Valid: false	 Busy: false
Phys reg:  80	 Arch reg:   0	 Producer: 0	 Valid: false	 Busy: false
Phys reg:  81	 Arch reg:   0	 Producer: 0	 Valid: false	 Busy: false
Phys reg:  82	 Arch reg:   0	 Producer: 0	 Valid: false	 Busy: false
Phys reg:  83	 Arch reg:   0	 Producer: 0	 Valid: false	 Busy: false
Phys reg:  84	 Arch reg:   0	 Producer: 0	 Valid: false	 Busy: false
Phys reg:  85	 Arch reg:   0	 Producer: 0	 Valid: false	 Busy: false
Phys reg:  86	 Arch reg:   0	 Producer: 0	 Valid: false	 Busy: false
Phys reg:  87	 Arch reg:   0	 Producer: 0	 Valid: false	 Busy: false
Phys reg:  88	 Arch reg:   0	 Producer: 0	 Valid: false	 Busy: false
Phys reg:  89	 Arch reg:   0	 Producer: 0	 Valid: false	 Busy: false
Phys reg:  90	 Arch reg:   0	 Producer: 0	 Valid: false	 Busy: false
Phys reg:  91	 Arch reg:   0	 Producer: 0	 Valid: false	 Busy: false
Phys reg:  92	 Arch reg:   0	 Producer: 0	 Valid: false	 Busy: false
Phys reg:  93	 Arch reg:   0	 Producer: 0	 Valid: false	 Busy: false
Phys reg:  94	 Arch reg:   0	 Producer: 0	 Valid: false	 Busy: false
Phys reg:  95	 Arch reg:   0	 Producer: 0	 Valid: false	 Busy: false
Phys reg:  96	 Arch reg:   0	 Producer: 0	 Valid: false	 Busy: false
Phys reg:  97	 Arch reg:   0	 Producer: 0	 Valid: false	 Busy: false
Phys reg:  98	 Arch reg:   0	 Producer: 0	 Valid: false	 Busy: false
Phys reg:  99	 Arch reg:   0	 Producer: 0	 Valid: false	 Busy: false
Phys reg: 100	 Arch reg:   0	 Producer: 0	 Valid: false	 Busy: false
Phys reg: 101	 Arch reg:   0	 Producer: 0	 Valid: false	 Busy: false
Phys reg: 102	 Arch reg:   0	 Producer: 0	 Valid: false	 Busy: false
Phys reg: 103	 Arch reg:   0	 Producer: 0	 Valid: false	 Busy: false
Phys reg: 104	 Arch reg:   0	 Producer: 0	 Valid: false	 Busy: false
Phys reg: 105	 Arch reg:   0	 Producer: 0	 Valid: false	 Busy: false
Phys reg: 106	 Arch reg:   0	 Producer: 0	 Valid: false	 Busy: false
Phys reg: 107	 Arch reg:   0	 Producer: 0	 Valid: false	 Busy: false
Phys reg: 108	 Arch reg:   0	 Producer: 0	 Valid: false	 Busy: false
Phys reg: 109	 Arch reg:   0	 Producer: 0	 Valid: false	 Busy: false
Phys reg: 110	 Arch reg:   0	 Producer: 0	 Valid: false	 Busy: false
Phys reg: 111	 Arch reg:   0	 Producer: 0	 Valid: false	 Busy: false
Phys reg: 112	 Arch reg:   0	 Producer: 0	 Valid: false	 Busy: false
Phys reg: 113	 Arch reg:   0	 Producer: 0	 Valid: false	 Busy: false
Phys reg: 114	 Arch reg:   0	 Producer: 0	 Valid: false	 Busy: false
Phys reg: 115	 Arch reg:   0	 Producer: 0	 Valid: false	 Busy: false
Phys reg: 116	 Arch reg:   0	 Producer: 0	 Valid: false	 Busy: false
Phys reg: 117	 Arch reg:   0	 Producer: 0	 Valid: false	 Busy: false
Phys reg: 118	 Arch reg:   0	 Producer: 0	 Valid: false	 Busy: false
Phys reg: 119	 Arch reg:   0	 Producer: 0	 Valid: false	 Busy: false
Phys reg: 120	 Arch reg:   0	 Producer: 0	 Valid: false	 Busy: false
Phys reg: 121	 Arch reg:   0	 Producer: 0	 Valid: false	 Busy: false
Phys reg: 122	 Arch reg:   0	 Producer: 0	 Valid: false	 Busy: false
Phys reg: 123	 Arch reg:   0	 Producer: 0	 Valid: false	 Busy: false
Phys reg: 124	 Arch reg:   0	 Producer: 0	 Valid: false	 Busy: false
Phys reg: 125	 Arch reg:   0	 Producer: 0	 Valid: false	 Busy: false
Phys reg: 126	 Arch reg:   0	 Producer: 0	 Valid: false	 Busy: false
Phys reg: 127	 Arch reg:   0	 Producer: 0	 Valid: false	 Busy: false

[cpu0_LQ] entry:   0 empty
[cpu0_LQ] entry:   1 instr_id: 2324792 address: 0xb0ee728 fetch_issued: true event_cycle: 824836 waits on -
[cpu0_LQ] entry:   2 instr_id: 2324927 address: 0x848ba10 fetch_issued: true event_cycle: 824913 waits on -
[cpu0_LQ] entry:   3 empty
[cpu0_LQ] entry:   4 empty
[cpu0_LQ] entry:   5 instr_id: 2324902 address: 0x848ba10 fetch_issued: true event_cycle: 824882 waits on -
[cpu0_LQ] entry:   6 empty
[cpu0_LQ] entry:   7 empty
[cpu0_LQ] entry:   8 empty
[cpu0_LQ] entry:   9 empty
[cpu0_LQ] entry:  10 instr_id: 2324722 address: 0x326f408 fetch_issued: true event_cycle: 824800 waits on -
[cpu0_LQ] entry:  11 empty
[cpu0_LQ] entry:  12 empty
[cpu0_LQ] entry:  13 empty
[cpu0_LQ] entry:  14 empty
[cpu0_LQ] entry:  15 empty
[cpu0_LQ] entry:  16 instr_id: 2325055 address: 0x326f428 fetch_issued: true event_cycle: 824960 waits on -
[cpu0_LQ] entry:  17 empty
[cpu0_LQ] entry:  18 empty
[cpu0_LQ] entry:  19 empty
[cpu0_LQ] entry:  20 empty
[cpu0_LQ] entry:  21 empty
[cpu0_LQ] entry:  22 empty
[cpu0_LQ] entry:  23 empty
[cpu0_LQ] entry:  24 empty
[cpu0_LQ] entry:  25 empty
[cpu0_LQ] entry:  26 empty
[cpu0_LQ] entry:  27 empty
[cpu0_LQ] entry:  28 instr_id: 2324777 address: 0x326f3f8 fetch_issued: true event_cycle: 824827 waits on -
[cpu0_LQ] entry:  29 empty
[cpu0_LQ] entry:  30 instr_id: 2324780 address: 0x326f3f0 fetch_issued: true event_cycle: 824828 waits on -
[cpu0_LQ] entry:  31 empty
[cpu0_LQ] entry:  32 empty
[cpu0_LQ] entry:  33 empty
[cpu0_LQ] entry:  34 empty
[cpu0_LQ] entry:  35 empty
[cpu0_LQ] entry:  36 instr_id: 2324807 address: 0xb0ee738 fetch_issued: true event_cycle: 824841 waits on -
[cpu0_LQ] entry:  37 empty
[cpu0_LQ] entry:  38 empty
[cpu0_LQ] entry:  39 empty
[cpu0_LQ] entry:  40 empty
[cpu0_LQ] entry:  41 empty
[cpu0_LQ] entry:  42 empty
[cpu0_LQ] entry:  43 empty
[cpu0_LQ] entry:  44 empty
[cpu0_LQ] entry:  45 empty
[cpu0_LQ] entry:  46 empty
[cpu0_LQ] entry:  47 empty
[cpu0_LQ] entry:  48 instr_id: 2324812 address: 0xb0ee728 fetch_issued: true event_cycle: 824842 waits on -
[cpu0_LQ] entry:  49 empty
[cpu0_LQ] entry:  50 empty
[cpu0_LQ] entry:  51 empty
[cpu0_LQ] entry:  52 empty
[cpu0_LQ] entry:  53 empty
[cpu0_LQ] entry:  54 empty
[cpu0_LQ] entry:  55 empty
[cpu0_LQ] entry:  56 empty
[cpu0_LQ] entry:  57 empty
[cpu0_LQ] entry:  58 empty
[cpu0_LQ] entry:  59 empty
[cpu0_LQ] entry:  60 instr_id: 2324852 address: 0x848ba08 fetch_issued: true event_cycle: 824866 waits on -
[cpu0_LQ] entry:  61 empty
[cpu0_LQ] entry:  62 empty
[cpu0_LQ] entry:  63 instr_id: 2324877 address: 0x848ba10 fetch_issued: true event_cycle: 824872 waits on -
[cpu0_LQ] entry:  64 empty
[cpu0_LQ] entry:  65 empty
[cpu0_LQ] entry:  66 empty
[cpu0_LQ] entry:  67 empty
[cpu0_LQ] entry:  68 empty
[cpu0_LQ] entry:  69 empty
[cpu0_LQ] entry:  70 empty
[cpu0_LQ] entry:  71 empty
[cpu0_LQ] entry:  72 empty
[cpu0_LQ] entry:  73 empty
[cpu0_LQ] entry:  74 empty
[cpu0_LQ] entry:  75 empty
[cpu0_LQ] entry:  76 empty
[cpu0_LQ] entry:  77 empty
[cpu0_LQ] entry:  78 empty
[cpu0_LQ] entry:  79 empty
[cpu0_LQ] entry:  80 empty
[cpu0_LQ] entry:  81 empty
[cpu0_LQ] entry:  82 empty
[cpu0_LQ] entry:  83 empty
[cpu0_LQ] entry:  84 empty
[cpu0_LQ] entry:  85 empty
[cpu0_LQ] entry:  86 empty
[cpu0_LQ] entry:  87 empty
[cpu0_LQ] entry:  88 empty
[cpu0_LQ] entry:  89 empty
[cpu0_LQ] entry:  90 empty
[cpu0_LQ] entry:  91 empty
[cpu0_LQ] entry:  92 empty
[cpu0_LQ] entry:  93 empty
[cpu0_LQ] entry:  94 empty
[cpu0_LQ] entry:  95 empty
[cpu0_LQ] entry:  96 empty
[cpu0_LQ] entry:  97 empty
[cpu0_LQ] entry:  98 empty
[cpu0_LQ] entry:  99 empty
[cpu0_LQ] entry: 100 empty
[cpu0_LQ] entry: 101 empty
[cpu0_LQ] entry: 102 empty
[cpu0_LQ] entry: 103 empty
[cpu0_LQ] entry: 104 empty
[cpu0_LQ] entry: 105 empty
[cpu0_LQ] entry: 106 empty
[cpu0_LQ] entry: 107 empty
[cpu0_LQ] entry: 108 empty
[cpu0_LQ] entry: 109 empty
[cpu0_LQ] entry: 110 empty
[cpu0_LQ] entry: 111 empty
[cpu0_LQ] entry: 112 empty
[cpu0_LQ] entry: 113 empty
[cpu0_LQ] entry: 114 empty
[cpu0_LQ] entry: 115 empty
[cpu0_LQ] entry: 116 empty
[cpu0_LQ] entry: 117 empty
[cpu0_LQ] entry: 118 empty
[cpu0_LQ] entry: 119 empty
[cpu0_LQ] entry: 120 empty
[cpu0_LQ] entry: 121 empty
[cpu0_LQ] entry: 122 empty
[cpu0_LQ] entry: 123 empty
[cpu0_LQ] entry: 124 empty
[cpu0_LQ] entry: 125 empty
[cpu0_LQ] entry: 126 empty
[cpu0_LQ] entry: 127 empty

[cpu0_SQ] entry:   0 instr_id: 2324730 address: 0x7ffd782a3c2c fetch_issued: true event_cycle: 824802 LQ waiting: []
[cpu0_SQ] entry:   1 instr_id: 2324740 address: 0x7ffd782a3c18 fetch_issued: true event_cycle: 824804 LQ waiting: []
[cpu0_SQ] entry:   2 instr_id: 2324744 address: 0x7ffd782a3c08 fetch_issued: true event_cycle: 824805 LQ waiting: []
[cpu0_SQ] entry:   3 instr_id: 2324750 address: 0x7ffd782a3c00 fetch_issued: true event_cycle: 824807 LQ waiting: []
[cpu0_SQ] entry:   4 instr_id: 2324751 address: 0x7ffd782a3bf8 fetch_issued: true event_cycle: 824807 LQ waiting: []
[cpu0_SQ] entry:   5 instr_id: 2324752 address: 0x7ffd782a3bf0 fetch_issued: true event_cycle: 824808 LQ waiting: []
[cpu0_SQ] entry:   6 instr_id: 2324753 address: 0x7ffd782a3be8 fetch_issued: true event_cycle: 824808 LQ waiting: []
[cpu0_SQ] entry:   7 instr_id: 2324754 address: 0x7ffd782a3be0 fetch_issued: true event_cycle: 824809 LQ waiting: []
[cpu0_SQ] entry:   8 instr_id: 2324755 address: 0x7ffd782a3bd8 fetch_issued: true event_cycle: 824809 LQ waiting: []
[cpu0_SQ] entry:   9 instr_id: 2324756 address: 0x7ffd782a3bd0 fetch_issued: true event_cycle: 824810 LQ waiting: []
[cpu0_SQ] entry:  10 instr_id: 2324757 address: 0x7ffd782a3bc8 fetch_issued: true event_cycle: 824810 LQ waiting: []
[cpu0_SQ] entry:  11 instr_id: 2324761 address: 0x7ffd782a3ba0 fetch_issued: true event_cycle: 824811 LQ waiting: []
[cpu0_SQ] entry:  12 instr_id: 2324762 address: 0x7ffd782a3b98 fetch_issued: true event_cycle: 824811 LQ waiting: []
[cpu0_SQ] entry:  13 instr_id: 2324763 address: 0x7ffd782a3bb0 fetch_issued: true event_cycle: 824812 LQ waiting: []
[cpu0_SQ] entry:  14 instr_id: 2324764 address: 0x7ffd782a3b94 fetch_issued: true event_cycle: 824824 LQ waiting: []
[cpu0_SQ] entry:  15 instr_id: 2324765 address: 0x7ffd782a3b90 fetch_issued: true event_cycle: 824824 LQ waiting: []
[cpu0_SQ] entry:  16 instr_id: 2324778 address: 0x7ffd782a3bb0 fetch_issued: true event_cycle: 824827 LQ waiting: []
[cpu0_SQ] entry:  17 instr_id: 2324783 address: 0x7ffd782a3b94 fetch_issued: true event_cycle: 824828 LQ waiting: []
[cpu0_SQ] entry:  18 instr_id: 2324786 address: 0x7ffd782a3bc7 fetch_issued: true event_cycle: 824829 LQ waiting: []
[cpu0_SQ] entry:  19 instr_id: 2324796 address: 0x7ffd782a3bac fetch_issued: true event_cycle: 824838 LQ waiting: []
[cpu0_SQ] entry:  20 instr_id: 2324811 address: 0x7ffd782a3ba8 fetch_issued: true event_cycle: 824842 LQ waiting: []
[cpu0_SQ] entry:  21 instr_id: 2324824 address: 0x7ffd782a3b88 fetch_issued: true event_cycle: 824858 LQ waiting: []
[cpu0_SQ] entry:  22 instr_id: 2324834 address: 0x7ffd782a3b88 fetch_issued: true event_cycle: 824861 LQ waiting: []
[cpu0_SQ] entry:  23 instr_id: 2324844 address: 0x7ffd782a3b88 fetch_issued: true event_cycle: 824864 LQ waiting: []
[cpu0_SQ] entry:  24 instr_id: 2324854 address: 0x7ffd782a3b88 fetch_issued: true event_cycle: 824866 LQ waiting: [18446744073709551615]
[cpu0_SQ] entry:  25 instr_id: 2324862 address: 0x7ffd782a3b80 fetch_issued: true event_cycle: 824868 LQ waiting: [18446744073709551615]
[cpu0_SQ] entry:  26 instr_id: 2324912 address: 0x7ffd782a3c18 fetch_issued: true event_cycle: 824895 LQ waiting: []
[cpu0_SQ] entry:  27 instr_id: 2324913 address: 0x7ffd782a3c10 fetch_issued: true event_cycle: 824895 LQ waiting: []
[cpu0_SQ] entry:  28 instr_id: 2324915 address: 0x7ffd782a3c08 fetch_issued: true event_cycle: 824896 LQ waiting: []
[cpu0_SQ] entry:  29 instr_id: 2324930 address: 0x7efd80c63d20 fetch_issued: true event_cycle: 824914 LQ waiting: []
[cpu0_SQ] entry:  30 instr_id: 2324932 address: 0x7d5dd8 fetch_issued: true event_cycle: 824914 LQ waiting: []
[cpu0_SQ] entry:  31 instr_id: 2324945 address: 0x7d5e78 fetch_issued: true event_cycle: 824917 LQ waiting: [18446744073709551615]
[cpu0_SQ] entry:  32 instr_id: 2324951 address: 0x7ffd782a3c78 fetch_issued: true event_cycle: 824919 LQ waiting: []
[cpu0_SQ] entry:  33 instr_id: 2324952 address: 0x7ffd782a3c68 fetch_issued: true event_cycle: 824919 LQ waiting: []
[cpu0_SQ] entry:  34 instr_id: 2324953 address: 0x7ffd782a3c70 fetch_issued: true event_cycle: 824920 LQ waiting: []
[cpu0_SQ] entry:  35 instr_id: 2324955 address: 0x7ffd782a3c48 fetch_issued: true event_cycle: 824920 LQ waiting: []
[cpu0_SQ] entry:  36 instr_id: 2324956 address: 0x7ffd782a3c50 fetch_issued: true event_cycle: 824921 LQ waiting: []
[cpu0_SQ] entry:  37 instr_id: 2324957 address: 0x7ffd782a3c58 fetch_issued: true event_cycle: 824921 LQ waiting: []
[cpu0_SQ] entry:  38 instr_id: 2324958 address: 0x7ffd782a3c60 fetch_issued: true event_cycle: 824922 LQ waiting: []
[cpu0_SQ] entry:  39 instr_id: 2324985 address: 0x7efd80c63d20 fetch_issued: true event_cycle: 824927 LQ waiting: []
[cpu0_SQ] entry:  40 instr_id: 2324987 address: 0x7d5dd8 fetch_issued: true event_cycle: 824928 LQ waiting: [18446744073709551615]
[cpu0_SQ] entry:  41 instr_id: 2324999 address: 0x7d5e78 fetch_issued: true event_cycle: 824931 LQ waiting: [2325022, 18446744073709551615, 2325017]
[cpu0_SQ] entry:  42 instr_id: 2325005 address: 0x7ffd782a3c78 fetch_issued: true event_cycle: 824932 LQ waiting: [2325015]
[cpu0_SQ] entry:  43 instr_id: 2325015 address: 0x7efd80c63d28 fetch_issued: true event_cycle: 824935 LQ waiting: [2325015]
[cpu0_SQ] entry:  44 instr_id: 2325017 address: 0x7d5dd8 fetch_issued: true event_cycle: 824935 LQ waiting: [2325017]
[cpu0_SQ] entry:  45 instr_id: 2325022 address: 0x7d5e78 fetch_issued: true event_cycle: 824937 LQ waiting: [2325022, 2325022]
[cpu0_SQ] entry:  46 instr_id: 2325028 address: 0x7ffd782a3c78 fetch_issued: true event_cycle: 824938 LQ waiting: []
[cpu0_SQ] entry:  47 instr_id: 2325029 address: 0x7ffd782a3c68 fetch_issued: true event_cycle: 824938 LQ waiting: []
[cpu0_SQ] entry:  48 instr_id: 2325030 address: 0x7ffd782a3c48 fetch_issued: true event_cycle: 824939 LQ waiting: []
[cpu0_SQ] entry:  49 instr_id: 2325031 address: 0x7ffd782a3c50 fetch_issued: true event_cycle: 824939 LQ waiting: []
[cpu0_SQ] entry:  50 instr_id: 2325032 address: 0x7ffd782a3c58 fetch_issued: true event_cycle: 824940 LQ waiting: []
[cpu0_SQ] entry:  51 instr_id: 2325033 address: 0x7ffd782a3c60 fetch_issued: true event_cycle: 824940 LQ waiting: []
[cpu0_SQ] entry:  52 instr_id: 2325034 address: 0x7ffd782a3c70 fetch_issued: true event_cycle: 824941 LQ waiting: []
[cpu0_SQ] entry:  53 instr_id: 2325039 address: 0x7ffd782a3c30 fetch_issued: true event_cycle: 824941 LQ waiting: []
[cpu0_SQ] entry:  54 instr_id: 2325049 address: 0x7ffd782a3c28 fetch_issued: true event_cycle: 824958 LQ waiting: []
[cpu0_SQ] entry:  55 instr_id: 2325063 address: 0x7ffd782a3c2c fetch_issued: true event_cycle: 824962 LQ waiting: []
[cpu0_SQ] entry:  56 instr_id: 2325073 address: 0x7ffd782a3c18 fetch_issued: true event_cycle: 824964 LQ waiting: []

[cpu0_STLB_MSHR] entry:   0 instr_id: 2324722 address: 0x326f408 v_addr: 0x326f408 type: LOAD ready: true
[cpu0_STLB_MSHR] entry:   1 instr_id: 2324792 address: 0xb0ee728 v_addr: 0xb0ee728 type: LOAD ready: true
[cpu0_STLB_MSHR] entry:   2 instr_id: 2324852 address: 0x848ba08 v_addr: 0x848ba08 type: LOAD ready: true

cpu0_STLB_tags empty

cpu0_STLB_translation empty

cpu0_STLB_RQ empty

cpu0_STLB_WQ empty

cpu0_STLB_PQ empty

cpu0_STLB_RQ empty

cpu0_STLB_WQ empty

cpu0_STLB_PQ empty

cpu0_STLB_RQ empty

cpu0_STLB_WQ empty

cpu0_STLB_PQ empty

cpu0_L2C_MSHR empty

cpu0_L2C_tags empty

cpu0_L2C_translation empty

cpu0_L2C_RQ empty

cpu0_L2C_WQ empty

cpu0_L2C_PQ empty

cpu0_L2C_RQ empty

cpu0_L2C_WQ empty

cpu0_L2C_PQ empty

cpu0_L1I_MSHR empty

cpu0_L1I_tags empty

cpu0_L1I_translation empty

cpu0_L1I_RQ empty

cpu0_L1I_WQ empty

cpu0_L1I_PQ empty

cpu0_L1D_MSHR empty

cpu0_L1D_tags empty

[cpu0_L1D_translation] entry:   0 instr_id: 2324722 address: 0x326f408 v_addr: 0x326f408 is_translated: false translate_issued: true event_cycle: 824952
[cpu0_L1D_translation] entry:   1 instr_id: 2324777 address: 0x326f3f8 v_addr: 0x326f3f8 is_translated: false translate_issued: true event_cycle: 824953
[cpu0_L1D_translation] entry:   2 instr_id: 2324792 address: 0xb0ee728 v_addr: 0xb0ee728 is_translated: false translate_issued: true event_cycle: 824955
[cpu0_L1D_translation] entry:   3 instr_id: 2324852 address: 0x848ba08 v_addr: 0x848ba08 is_translated: false translate_issued: true event_cycle: 824993
[cpu0_L1D_translation] entry:   4 instr_id: 2325055 address: 0x326f428 v_addr: 0x326f428 is_translated: false translate_issued: true event_cycle: 825016

cpu0_L1D_RQ empty

cpu0_L1D_WQ empty

cpu0_L1D_PQ empty

cpu0_L1D_RQ empty

cpu0_L1D_WQ empty

cpu0_L1D_PQ empty

cpu0_ITLB_MSHR empty

cpu0_ITLB_tags empty

cpu0_ITLB_translation empty

cpu0_ITLB_RQ empty

cpu0_ITLB_WQ empty

cpu0_ITLB_PQ empty

[cpu0_DTLB_MSHR] entry:   0 instr_id: 2324792 address: 0xb0ee728 v_addr: 0xb0ee728 type: LOAD ready: false
[cpu0_DTLB_MSHR] entry:   1 instr_id: 2325055 address: 0x326f428 v_addr: 0x326f428 type: LOAD ready: false
[cpu0_DTLB_MSHR] entry:   2 instr_id: 2324852 address: 0x848ba08 v_addr: 0x848ba08 type: LOAD ready: false

cpu0_DTLB_tags empty

cpu0_DTLB_translation empty

cpu0_DTLB_RQ empty

cpu0_DTLB_WQ empty

cpu0_DTLB_PQ empty

LLC_MSHR empty

LLC_tags empty

LLC_translation empty

LLC_RQ empty

LLC_WQ empty

LLC_PQ empty

cpu0_PTW_MSHR empty

DRAM Channel 0
[RQ] entry:   0 empty
[RQ] entry:   1 empty
[RQ] entry:   2 empty
[RQ] entry:   3 empty
[RQ] entry:   4 empty
[RQ] entry:   5 empty
[RQ] entry:   6 empty
[RQ] entry:   7 empty
[RQ] entry:   8 empty
[RQ] entry:   9 empty
[RQ] entry:  10 empty
[RQ] entry:  11 empty
[RQ] entry:  12 empty
[RQ] entry:  13 empty
[RQ] entry:  14 empty
[RQ] entry:  15 empty
[RQ] entry:  16 empty
[RQ] entry:  17 empty
[RQ] entry:  18 empty
[RQ] entry:  19 empty
[RQ] entry:  20 empty
[RQ] entry:  21 empty
[RQ] entry:  22 empty
[RQ] entry:  23 empty
[RQ] entry:  24 empty
[RQ] entry:  25 empty
[RQ] entry:  26 empty
[RQ] entry:  27 empty
[RQ] entry:  28 empty
[RQ] entry:  29 empty
[RQ] entry:  30 empty
[RQ] entry:  31 empty
[RQ] entry:  32 empty
[RQ] entry:  33 empty
[RQ] entry:  34 empty
[RQ] entry:  35 empty
[RQ] entry:  36 empty
[RQ] entry:  37 empty
[RQ] entry:  38 empty
[RQ] entry:  39 empty
[RQ] entry:  40 