[VMEM] WARNING: physical memory size is smaller than virtual memory size.

*** ChampSim Multicore Out-of-Order Simulator ***
Warmup Instructions: 20000000
Simulation Instructions: 10000000
Number of CPUs: 1
Page size: 4096

Off-chip DRAM Size: 16 GiB Channels: 1 Width: 64-bit Data Rate: 3205 MT/s
Heartbeat CPU 0 instructions: 10000001 cycles: 3368008 heartbeat IPC: 2.969 cumulative IPC: 2.969 (Simulation time: 00 hr 01 min 11 sec)
Tendency balance: 0.053101.
Warmup finished CPU 0 instructions: 20000000 cycles: 6990010 cumulative IPC: 2.861 (Simulation time: 00 hr 02 min 31 sec)
Warmup complete CPU 0 instructions: 20000000 cycles: 6990010 cumulative IPC: 2.861 (Simulation time: 00 hr 02 min 31 sec)
Heartbeat CPU 0 instructions: 20000003 cycles: 6990011 heartbeat IPC: 2.761 cumulative IPC: 3 (Simulation time: 00 hr 02 min 31 sec)
Simulation finished CPU 0 instructions: 10000002 cycles: 9278514 cumulative IPC: 1.078 (Simulation time: 00 hr 05 min 27 sec)
Simulation complete CPU 0 instructions: 10000002 cycles: 9278514 cumulative IPC: 1.078 (Simulation time: 00 hr 05 min 27 sec)

ChampSim completed all CPUs

=== Simulation ===
CPU 0 runs /home/hugo/APA/traces/401.bzip2-226B.champsimtrace.xz

Region of Interest Statistics

CPU 0 cumulative IPC: 1.078 instructions: 10000002 cycles: 9278514
CPU 0 Branch Prediction Accuracy: 99.98% MPKI: 0.0059 Average ROB Occupancy at Mispredict: 133.3
Branch type MPKI
BRANCH_DIRECT_JUMP: 0
BRANCH_INDIRECT: 0
BRANCH_CONDITIONAL: 0.0059
BRANCH_DIRECT_CALL: 0
BRANCH_INDIRECT_CALL: 0
BRANCH_RETURN: 0

cpu0->cpu0_STLB TOTAL        ACCESS:     245806 HIT:     244833 MISS:        973 MSHR_MERGE:          0
cpu0->cpu0_STLB LOAD         ACCESS:     245806 HIT:     244833 MISS:        973 MSHR_MERGE:          0
cpu0->cpu0_STLB RFO          ACCESS:          0 HIT:          0 MISS:          0 MSHR_MERGE:          0
cpu0->cpu0_STLB PREFETCH     ACCESS:          0 HIT:          0 MISS:          0 MSHR_MERGE:          0
cpu0->cpu0_STLB WRITE        ACCESS:          0 HIT:          0 MISS:          0 MSHR_MERGE:          0
cpu0->cpu0_STLB TRANSLATION  ACCESS:          0 HIT:          0 MISS:          0 MSHR_MERGE:          0
cpu0->cpu0_STLB PREFETCH REQUESTED:          0 ISSUED:          0 USEFUL:          0 USELESS:          0
cpu0->cpu0_STLB AVERAGE MISS LATENCY: 286.8 cycles
cpu0->cpu0_L2C TOTAL        ACCESS:     167232 HIT:     107733 MISS:      59499 MSHR_MERGE:          0
cpu0->cpu0_L2C LOAD         ACCESS:      28329 HIT:       9831 MISS:      18498 MSHR_MERGE:          0
cpu0->cpu0_L2C RFO          ACCESS:      62243 HIT:      21926 MISS:      40317 MSHR_MERGE:          0
cpu0->cpu0_L2C PREFETCH     ACCESS:          0 HIT:          0 MISS:          0 MSHR_MERGE:          0
cpu0->cpu0_L2C WRITE        ACCESS:      76377 HIT:      75842 MISS:        535 MSHR_MERGE:          0
cpu0->cpu0_L2C TRANSLATION  ACCESS:        283 HIT:        134 MISS:        149 MSHR_MERGE:          0
cpu0->cpu0_L2C PREFETCH REQUESTED:          0 ISSUED:          0 USEFUL:          0 USELESS:          0
cpu0->cpu0_L2C AVERAGE MISS LATENCY: 182.5 cycles
cpu0->cpu0_L1I TOTAL        ACCESS:    1737427 HIT:    1737416 MISS:         11 MSHR_MERGE:          5
cpu0->cpu0_L1I LOAD         ACCESS:    1737427 HIT:    1737416 MISS:         11 MSHR_MERGE:          5
cpu0->cpu0_L1I RFO          ACCESS:          0 HIT:          0 MISS:          0 MSHR_MERGE:          0
cpu0->cpu0_L1I PREFETCH     ACCESS:          0 HIT:          0 MISS:          0 MSHR_MERGE:          0
cpu0->cpu0_L1I WRITE        ACCESS:          0 HIT:          0 MISS:          0 MSHR_MERGE:          0
cpu0->cpu0_L1I TRANSLATION  ACCESS:          0 HIT:          0 MISS:          0 MSHR_MERGE:          0
cpu0->cpu0_L1I PREFETCH REQUESTED:          0 ISSUED:          0 USEFUL:          0 USELESS:          0
cpu0->cpu0_L1I AVERAGE MISS LATENCY: 253.8 cycles
cpu0->cpu0_L1D TOTAL        ACCESS:    2898337 HIT:    2341391 MISS:     556946 MSHR_MERGE:     466094
cpu0->cpu0_L1D LOAD         ACCESS:    1077644 HIT:     998082 MISS:      79562 MSHR_MERGE:      51238
cpu0->cpu0_L1D RFO          ACCESS:          0 HIT:          0 MISS:          0 MSHR_MERGE:          0
cpu0->cpu0_L1D PREFETCH     ACCESS:          0 HIT:          0 MISS:          0 MSHR_MERGE:          0
cpu0->cpu0_L1D WRITE        ACCESS:    1819708 HIT:    1342614 MISS:     477094 MSHR_MERGE:     414849
cpu0->cpu0_L1D TRANSLATION  ACCESS:        985 HIT:        695 MISS:        290 MSHR_MERGE:          7
cpu0->cpu0_L1D PREFETCH REQUESTED:          0 ISSUED:          0 USEFUL:          0 USELESS:          0
cpu0->cpu0_L1D AVERAGE MISS LATENCY: 127.2 cycles
cpu0->cpu0_ITLB TOTAL        ACCESS:    1529332 HIT:    1529332 MISS:          0 MSHR_MERGE:          0
cpu0->cpu0_ITLB LOAD         ACCESS:    1529332 HIT:    1529332 MISS:          0 MSHR_MERGE:          0
cpu0->cpu0_ITLB RFO          ACCESS:          0 HIT:          0 MISS:          0 MSHR_MERGE:          0
cpu0->cpu0_ITLB PREFETCH     ACCESS:          0 HIT:          0 MISS:          0 MSHR_MERGE:          0
cpu0->cpu0_ITLB WRITE        ACCESS:          0 HIT:          0 MISS:          0 MSHR_MERGE:          0
cpu0->cpu0_ITLB TRANSLATION  ACCESS:          0 HIT:          0 MISS:          0 MSHR_MERGE:          0
cpu0->cpu0_ITLB PREFETCH REQUESTED:          0 ISSUED:          0 USEFUL:          0 USELESS:          0
cpu0->cpu0_ITLB AVERAGE MISS LATENCY: - cycles
cpu0->cpu0_DTLB TOTAL        ACCESS:    2871995 HIT:    2614768 MISS:     257227 MSHR_MERGE:      11421
cpu0->cpu0_DTLB LOAD         ACCESS:    2871995 HIT:    2614768 MISS:     257227 MSHR_MERGE:      11421
cpu0->cpu0_DTLB RFO          ACCESS:          0 HIT:          0 MISS:          0 MSHR_MERGE:          0
cpu0->cpu0_DTLB PREFETCH     ACCESS:          0 HIT:          0 MISS:          0 MSHR_MERGE:          0
cpu0->cpu0_DTLB WRITE        ACCESS:          0 HIT:          0 MISS:          0 MSHR_MERGE:          0
cpu0->cpu0_DTLB TRANSLATION  ACCESS:          0 HIT:          0 MISS:          0 MSHR_MERGE:          0
cpu0->cpu0_DTLB PREFETCH REQUESTED:          0 ISSUED:          0 USEFUL:          0 USELESS:          0
cpu0->cpu0_DTLB AVERAGE MISS LATENCY: 5.139 cycles
cpu0->LLC TOTAL        ACCESS:     103596 HIT:      51507 MISS:      52089 MSHR_MERGE:          0
cpu0->LLC LOAD         ACCESS:      18498 HIT:       5843 MISS:      12655 MSHR_MERGE:          0
cpu0->LLC RFO          ACCESS:      40317 HIT:       1369 MISS:      38948 MSHR_MERGE:          0
cpu0->LLC PREFETCH     ACCESS:          0 HIT:          0 MISS:          0 MSHR_MERGE:          0
cpu0->LLC WRITE        ACCESS:      44632 HIT:      44290 MISS:        342 MSHR_MERGE:          0
cpu0->LLC TRANSLATION  ACCESS:        149 HIT:          5 MISS:        144 MSHR_MERGE:          0
cpu0->LLC PREFETCH REQUESTED:          0 ISSUED:          0 USEFUL:          2 USELESS:          7
cpu0->LLC AVERAGE MISS LATENCY: 193.9 cycles

DRAM Statistics

Channel 0 RQ ROW_BUFFER_HIT:       1767
  ROW_BUFFER_MISS:      49976
  AVG DBUS CONGESTED CYCLE: 15.07
Channel 0 WQ ROW_BUFFER_HIT:       9757
  ROW_BUFFER_MISS:      17255
  FULL:          0
Channel 0 REFRESHES ISSUED:        773
