[VMEM] WARNING: physical memory size is smaller than virtual memory size.

*** ChampSim Multicore Out-of-Order Simulator ***
Warmup Instructions: 20000000
Simulation Instructions: 10000000
Number of CPUs: 1
Page size: 4096

Off-chip DRAM Size: 16 GiB Channels: 1 Width: 64-bit Data Rate: 3205 MT/s
Heartbeat CPU 0 instructions: 10000001 cycles: 3368008 heartbeat IPC: 2.969 cumulative IPC: 2.969 (Simulation time: 00 hr 01 min 21 sec)
Tendency balance: 0.055710.
Warmup finished CPU 0 instructions: 20000000 cycles: 6990010 cumulative IPC: 2.861 (Simulation time: 00 hr 02 min 37 sec)
Warmup complete CPU 0 instructions: 20000000 cycles: 6990010 cumulative IPC: 2.861 (Simulation time: 00 hr 02 min 37 sec)
Heartbeat CPU 0 instructions: 20000003 cycles: 6990011 heartbeat IPC: 2.761 cumulative IPC: 3 (Simulation time: 00 hr 02 min 37 sec)
Simulation finished CPU 0 instructions: 10000002 cycles: 9276189 cumulative IPC: 1.078 (Simulation time: 00 hr 04 min 34 sec)
Simulation complete CPU 0 instructions: 10000002 cycles: 9276189 cumulative IPC: 1.078 (Simulation time: 00 hr 04 min 34 sec)

ChampSim completed all CPUs

=== Simulation ===
CPU 0 runs /home/hugo/APA/traces/401.bzip2-226B.champsimtrace.xz

Region of Interest Statistics

CPU 0 cumulative IPC: 1.078 instructions: 10000002 cycles: 9276189
CPU 0 Branch Prediction Accuracy: 99.98% MPKI: 0.0055 Average ROB Occupancy at Mispredict: 134
Branch type MPKI
BRANCH_DIRECT_JUMP: 0
BRANCH_INDIRECT: 0
BRANCH_CONDITIONAL: 0.0055
BRANCH_DIRECT_CALL: 0
BRANCH_INDIRECT_CALL: 0
BRANCH_RETURN: 0

cpu0->cpu0_STLB TOTAL        ACCESS:     245805 HIT:     244832 MISS:        973 MSHR_MERGE:          0
cpu0->cpu0_STLB LOAD         ACCESS:     245805 HIT:     244832 MISS:        973 MSHR_MERGE:          0
cpu0->cpu0_STLB RFO          ACCESS:          0 HIT:          0 MISS:          0 MSHR_MERGE:          0
cpu0->cpu0_STLB PREFETCH     ACCESS:          0 HIT:          0 MISS:          0 MSHR_MERGE:          0
cpu0->cpu0_STLB WRITE        ACCESS:          0 HIT:          0 MISS:          0 MSHR_MERGE:          0
cpu0->cpu0_STLB TRANSLATION  ACCESS:          0 HIT:          0 MISS:          0 MSHR_MERGE:          0
cpu0->cpu0_STLB PREFETCH REQUESTED:          0 ISSUED:          0 USEFUL:          0 USELESS:          0
cpu0->cpu0_STLB AVERAGE MISS LATENCY: 280.2 cycles
cpu0->cpu0_L2C TOTAL        ACCESS:     167210 HIT:     107846 MISS:      59364 MSHR_MERGE:          0
cpu0->cpu0_L2C LOAD         ACCESS:      28344 HIT:       9892 MISS:      18452 MSHR_MERGE:          0
cpu0->cpu0_L2C RFO          ACCESS:      62222 HIT:      21971 MISS:      40251 MSHR_MERGE:          0
cpu0->cpu0_L2C PREFETCH     ACCESS:          0 HIT:          0 MISS:          0 MSHR_MERGE:          0
cpu0->cpu0_L2C WRITE        ACCESS:      76368 HIT:      75856 MISS:        512 MSHR_MERGE:          0
cpu0->cpu0_L2C TRANSLATION  ACCESS:        276 HIT:        127 MISS:        149 MSHR_MERGE:          0
cpu0->cpu0_L2C PREFETCH REQUESTED:          0 ISSUED:          0 USEFUL:          0 USELESS:          0
cpu0->cpu0_L2C AVERAGE MISS LATENCY: 182.3 cycles
cpu0->cpu0_L1I TOTAL        ACCESS:    1737569 HIT:    1737558 MISS:         11 MSHR_MERGE:          5
cpu0->cpu0_L1I LOAD         ACCESS:    1737569 HIT:    1737558 MISS:         11 MSHR_MERGE:          5
cpu0->cpu0_L1I RFO          ACCESS:          0 HIT:          0 MISS:          0 MSHR_MERGE:          0
cpu0->cpu0_L1I PREFETCH     ACCESS:          0 HIT:          0 MISS:          0 MSHR_MERGE:          0
cpu0->cpu0_L1I WRITE        ACCESS:          0 HIT:          0 MISS:          0 MSHR_MERGE:          0
cpu0->cpu0_L1I TRANSLATION  ACCESS:          0 HIT:          0 MISS:          0 MSHR_MERGE:          0
cpu0->cpu0_L1I PREFETCH REQUESTED:          0 ISSUED:          0 USEFUL:          0 USELESS:          0
cpu0->cpu0_L1I AVERAGE MISS LATENCY: 251.8 cycles
cpu0->cpu0_L1D TOTAL        ACCESS:    2898431 HIT:    2340942 MISS:     557489 MSHR_MERGE:     466653
cpu0->cpu0_L1D LOAD         ACCESS:    1077640 HIT:     998136 MISS:      79504 MSHR_MERGE:      51166
cpu0->cpu0_L1D RFO          ACCESS:          0 HIT:          0 MISS:          0 MSHR_MERGE:          0
cpu0->cpu0_L1D PREFETCH     ACCESS:          0 HIT:          0 MISS:          0 MSHR_MERGE:          0
cpu0->cpu0_L1D WRITE        ACCESS:    1819805 HIT:    1342103 MISS:     477702 MSHR_MERGE:     415480
cpu0->cpu0_L1D TRANSLATION  ACCESS:        986 HIT:        703 MISS:        283 MSHR_MERGE:          7
cpu0->cpu0_L1D PREFETCH REQUESTED:          0 ISSUED:          0 USEFUL:          0 USELESS:          0
cpu0->cpu0_L1D AVERAGE MISS LATENCY: 126.7 cycles
cpu0->cpu0_ITLB TOTAL        ACCESS:    1529641 HIT:    1529641 MISS:          0 MSHR_MERGE:          0
cpu0->cpu0_ITLB LOAD         ACCESS:    1529641 HIT:    1529641 MISS:          0 MSHR_MERGE:          0
cpu0->cpu0_ITLB RFO          ACCESS:          0 HIT:          0 MISS:          0 MSHR_MERGE:          0
cpu0->cpu0_ITLB PREFETCH     ACCESS:          0 HIT:          0 MISS:          0 MSHR_MERGE:          0
cpu0->cpu0_ITLB WRITE        ACCESS:          0 HIT:          0 MISS:          0 MSHR_MERGE:          0
cpu0->cpu0_ITLB TRANSLATION  ACCESS:          0 HIT:          0 MISS:          0 MSHR_MERGE:          0
cpu0->cpu0_ITLB PREFETCH REQUESTED:          0 ISSUED:          0 USEFUL:          0 USELESS:          0
cpu0->cpu0_ITLB AVERAGE MISS LATENCY: - cycles
cpu0->cpu0_DTLB TOTAL        ACCESS:    2872089 HIT:    2614890 MISS:     257199 MSHR_MERGE:      11394
cpu0->cpu0_DTLB LOAD         ACCESS:    2872089 HIT:    2614890 MISS:     257199 MSHR_MERGE:      11394
cpu0->cpu0_DTLB RFO          ACCESS:          0 HIT:          0 MISS:          0 MSHR_MERGE:          0
cpu0->cpu0_DTLB PREFETCH     ACCESS:          0 HIT:          0 MISS:          0 MSHR_MERGE:          0
cpu0->cpu0_DTLB WRITE        ACCESS:          0 HIT:          0 MISS:          0 MSHR_MERGE:          0
cpu0->cpu0_DTLB TRANSLATION  ACCESS:          0 HIT:          0 MISS:          0 MSHR_MERGE:          0
cpu0->cpu0_DTLB PREFETCH REQUESTED:          0 ISSUED:          0 USEFUL:          0 USELESS:          0
cpu0->cpu0_DTLB AVERAGE MISS LATENCY: 5.113 cycles
cpu0->LLC TOTAL        ACCESS:     103454 HIT:      51411 MISS:      52043 MSHR_MERGE:          0
cpu0->LLC LOAD         ACCESS:      18452 HIT:       5878 MISS:      12574 MSHR_MERGE:          0
cpu0->LLC RFO          ACCESS:      40251 HIT:       1301 MISS:      38950 MSHR_MERGE:          0
cpu0->LLC PREFETCH     ACCESS:          0 HIT:          0 MISS:          0 MSHR_MERGE:          0
cpu0->LLC WRITE        ACCESS:      44602 HIT:      44228 MISS:        374 MSHR_MERGE:          0
cpu0->LLC TRANSLATION  ACCESS:        149 HIT:          4 MISS:        145 MSHR_MERGE:          0
cpu0->LLC PREFETCH REQUESTED:          0 ISSUED:          0 USEFUL:          1 USELESS:          8
cpu0->LLC AVERAGE MISS LATENCY: 193.3 cycles

DRAM Statistics

Channel 0 RQ ROW_BUFFER_HIT:       1718
  ROW_BUFFER_MISS:      49947
  AVG DBUS CONGESTED CYCLE: 15
Channel 0 WQ ROW_BUFFER_HIT:       9621
  ROW_BUFFER_MISS:      17422
  FULL:          0
Channel 0 REFRESHES ISSUED:        773
