[VMEM] WARNING: physical memory size is smaller than virtual memory size.

*** ChampSim Multicore Out-of-Order Simulator ***
Warmup Instructions: 20000000
Simulation Instructions: 10000000
Number of CPUs: 1
Page size: 4096

Off-chip DRAM Size: 16 GiB Channels: 1 Width: 64-bit Data Rate: 3205 MT/s
Heartbeat CPU 0 instructions: 10000001 cycles: 8112105 heartbeat IPC: 1.233 cumulative IPC: 1.233 (Simulation time: 00 hr 01 min 43 sec)
Tendency balance: 0.222626.
Warmup finished CPU 0 instructions: 20000000 cycles: 16188957 cumulative IPC: 1.235 (Simulation time: 00 hr 03 min 12 sec)
Warmup complete CPU 0 instructions: 20000000 cycles: 16188957 cumulative IPC: 1.235 (Simulation time: 00 hr 03 min 12 sec)
Heartbeat CPU 0 instructions: 20000004 cycles: 16188959 heartbeat IPC: 1.238 cumulative IPC: 2 (Simulation time: 00 hr 03 min 12 sec)
Tendency balance: 0.232346.
Simulation finished CPU 0 instructions: 10000002 cycles: 6609057 cumulative IPC: 1.513 (Simulation time: 00 hr 04 min 12 sec)
Simulation complete CPU 0 instructions: 10000002 cycles: 6609057 cumulative IPC: 1.513 (Simulation time: 00 hr 04 min 12 sec)

ChampSim completed all CPUs

=== Simulation ===
CPU 0 runs /home/hugo/APA/traces/403.gcc-16B.champsimtrace.xz

Region of Interest Statistics

CPU 0 cumulative IPC: 1.513 instructions: 10000002 cycles: 6609057
CPU 0 Branch Prediction Accuracy: 99.58% MPKI: 0.8178 Average ROB Occupancy at Mispredict: 26.96
Branch type MPKI
BRANCH_DIRECT_JUMP: 0.0065
BRANCH_INDIRECT: 0.0182
BRANCH_CONDITIONAL: 0.793
BRANCH_DIRECT_CALL: 0
BRANCH_INDIRECT_CALL: 0.0001
BRANCH_RETURN: 0

cpu0->cpu0_STLB TOTAL        ACCESS:      10967 HIT:      10873 MISS:         94 MSHR_MERGE:          0
cpu0->cpu0_STLB LOAD         ACCESS:      10967 HIT:      10873 MISS:         94 MSHR_MERGE:          0
cpu0->cpu0_STLB RFO          ACCESS:          0 HIT:          0 MISS:          0 MSHR_MERGE:          0
cpu0->cpu0_STLB PREFETCH     ACCESS:          0 HIT:          0 MISS:          0 MSHR_MERGE:          0
cpu0->cpu0_STLB WRITE        ACCESS:          0 HIT:          0 MISS:          0 MSHR_MERGE:          0
cpu0->cpu0_STLB TRANSLATION  ACCESS:          0 HIT:          0 MISS:          0 MSHR_MERGE:          0
cpu0->cpu0_STLB PREFETCH REQUESTED:          0 ISSUED:          0 USEFUL:          0 USELESS:          0
cpu0->cpu0_STLB AVERAGE MISS LATENCY: 359.6 cycles
cpu0->cpu0_L2C TOTAL        ACCESS:     996593 HIT:     640019 MISS:     356574 MSHR_MERGE:          0
cpu0->cpu0_L2C LOAD         ACCESS:       6293 HIT:       1269 MISS:       5024 MSHR_MERGE:          0
cpu0->cpu0_L2C RFO          ACCESS:     494280 HIT:     143067 MISS:     351213 MSHR_MERGE:          0
cpu0->cpu0_L2C PREFETCH     ACCESS:          0 HIT:          0 MISS:          0 MSHR_MERGE:          0
cpu0->cpu0_L2C WRITE        ACCESS:     495924 HIT:     495683 MISS:        241 MSHR_MERGE:          0
cpu0->cpu0_L2C TRANSLATION  ACCESS:         96 HIT:          0 MISS:         96 MSHR_MERGE:          0
cpu0->cpu0_L2C PREFETCH REQUESTED:          0 ISSUED:          0 USEFUL:          0 USELESS:          0
cpu0->cpu0_L2C AVERAGE MISS LATENCY: 13.53 cycles
cpu0->cpu0_L1I TOTAL        ACCESS:    2017270 HIT:    2016681 MISS:        589 MSHR_MERGE:        126
cpu0->cpu0_L1I LOAD         ACCESS:    2017270 HIT:    2016681 MISS:        589 MSHR_MERGE:        126
cpu0->cpu0_L1I RFO          ACCESS:          0 HIT:          0 MISS:          0 MSHR_MERGE:          0
cpu0->cpu0_L1I PREFETCH     ACCESS:          0 HIT:          0 MISS:          0 MSHR_MERGE:          0
cpu0->cpu0_L1I WRITE        ACCESS:          0 HIT:          0 MISS:          0 MSHR_MERGE:          0
cpu0->cpu0_L1I TRANSLATION  ACCESS:          0 HIT:          0 MISS:          0 MSHR_MERGE:          0
cpu0->cpu0_L1I PREFETCH REQUESTED:          0 ISSUED:          0 USEFUL:          0 USELESS:          0
cpu0->cpu0_L1I AVERAGE MISS LATENCY: 37.33 cycles
cpu0->cpu0_L1D TOTAL        ACCESS:    4071204 HIT:     402456 MISS:    3668748 MSHR_MERGE:    3168541
cpu0->cpu0_L1D LOAD         ACCESS:      55083 HIT:      47842 MISS:       7