[VMEM] WARNING: physical memory size is smaller than virtual memory size.

*** ChampSim Multicore Out-of-Order Simulator ***
Warmup Instructions: 20000000
Simulation Instructions: 10000000
Number of CPUs: 1
Page size: 4096

Off-chip DRAM Size: 16 GiB Channels: 1 Width: 64-bit Data Rate: 3205 MT/s
Heartbeat CPU 0 instructions: 10000001 cycles: 8113257 heartbeat IPC: 1.233 cumulative IPC: 1.233 (Simulation time: 00 hr 02 min 07 sec)
Tendency balance: 0.165817.
DEADLOCK! CPU 0 cycle 13865129
[cpu0_IFETCH] entry:   0 instr_id: 17171780 fetch_issued: true fetch_completed: true scheduled: false executed: false completed: false num_reg_dependent: 0 num_mem_ops: 0 event: 13864377
[cpu0_IFETCH] entry:   1 instr_id: 17171781 fetch_issued: true fetch_completed: true scheduled: false executed: false completed: false num_reg_dependent: 0 num_mem_ops: 0 event: 13864377
[cpu0_IFETCH] entry:   2 instr_id: 17171782 fetch_issued: true fetch_completed: true scheduled: false executed: false completed: false num_reg_dependent: 0 num_mem_ops: 1 event: 13864377
[cpu0_IFETCH] entry:   3 instr_id: 17171783 fetch_issued: true fetch_completed: true scheduled: false executed: false completed: false num_reg_dependent: 0 num_mem_ops: 0 event: 13864378
[cpu0_IFETCH] entry:   4 instr_id: 17171784 fetch_issued: true fetch_completed: true scheduled: false executed: false completed: false num_reg_dependent: 0 num_mem_ops: 0 event: 13864378
[cpu0_IFETCH] entry:   5 instr_id: 17171785 fetch_issued: true fetch_completed: true scheduled: false executed: false completed: false num_reg_dependent: 0 num_mem_ops: 0 event: 13864378
[cpu0_IFETCH] entry:   6 instr_id: 17171786 fetch_issued: true fetch_completed: true scheduled: false executed: false completed: false num_reg_dependent: 0 num_mem_ops: 0 event: 13864379
[cpu0_IFETCH] entry:   7 instr_id: 17171787 fetch_issued: true fetch_completed: true scheduled: false executed: false completed: false num_reg_dependent: 0 num_mem_ops: 1 event: 13864379
[cpu0_IFETCH] entry:   8 instr_id: 17171788 fetch_issued: true fetch_completed: true scheduled: false executed: false completed: false num_reg_dependent: 0 num_mem_ops: 1 event: 13864379
[cpu0_IFETCH] entry:   9 instr_id: 17171789 fetch_issued: true fetch_completed: true scheduled: false executed: false completed: false num_reg_dependent: 0 num_mem_ops: 1 event: 13864380
[cpu0_IFETCH] entry:  10 instr_id: 17171790 fetch_issued: true fetch_completed: true scheduled: false executed: false completed: false num_reg_dependent: 0 num_mem_ops: 1 event: 13864380
[cpu0_IFETCH] entry:  11 instr_id: 17171791 fetch_issued: true fetch_completed: true scheduled: false executed: false completed: false num_reg_dependent: 0 num_mem_ops: 0 event: 13864380
[cpu0_IFETCH] entry:  12 instr_id: 17171792 fetch_issued: true fetch_completed: true scheduled: false executed: false completed: false num_reg_dependent: 0 num_mem_ops: 1 event: 13864380
[cpu0_IFETCH] entry:  13 instr_id: 17171793 fetch_issued: true fetch_completed: true scheduled: false executed: false completed: false num_reg_dependent: 0 num_mem_ops: 1 event: 13864380
[cpu0_IFETCH] entry:  14 instr_id: 17171794 fetch_issued: true fetch_completed: true scheduled: false executed: false completed: false num_reg_dependent: 0 num_mem_ops: 1 event: 13864380
[cpu0_IFETCH] entry:  15 instr_id: 17171795 fetch_issued: true fetch_completed: true scheduled: false executed: false completed: false num_reg_dependent: 0 num_mem_ops: 1 event: 13864381
[cpu0_IFETCH] entry:  16 instr_id: 17171796 fetch_issued: true fetch_completed: true scheduled: false executed: false completed: false num_reg_dependent: 0 num_mem_ops: 0 event: 13864381
[cpu0_IFETCH] entry:  17 instr_id: 17171797 fetch_issued: true fetch_completed: true scheduled: false executed: false completed: false num_reg_dependent: 0 num_mem_ops: 1 event: 13864381
[cpu0_IFETCH] entry:  18 instr_id: 17171798 fetch_issued: true fetch_completed: true scheduled: false executed: false completed: false num_reg_dependent: 0 num_mem_ops: 0 event: 13864381
[cpu0_IFETCH] entry:  19 instr_id: 17171799 fetch_issued: true fetch_completed: true scheduled: false executed: false completed: false num_reg_dependent: 0 num_mem_ops: 0 event: 13864381
[cpu0_IFETCH] entry:  20 instr_id: 17171800 fetch_issued: true fetch_completed: true scheduled: false executed: false completed: false num_reg_dependent: 0 num_mem_ops: 0 event: 13864381
[cpu0_IFETCH] entry:  21 instr_id: 17171801 fetch_issued: true fetch_completed: true scheduled: false executed: false completed: false num_reg_dependent: 0 num_mem_ops: 0 event: 13864382
[cpu0_IFETCH] entry:  22 instr_id: 17171802 fetch_issued: true fetch_completed: true scheduled: false executed: false completed: false num_reg_dependent: 0 num_mem_ops: 1 event: 13864382
[cpu0_IFETCH] entry:  23 instr_id: 17171803 fetch_issued: true fetch_completed: true scheduled: false executed: false completed: false num_reg_dependent: 0 num_mem_ops: 0 event: 13864383
[cpu0_IFETCH] entry:  24 instr_id: 17171804 fetch_issued: true fetch_completed: true scheduled: false executed: false completed: false num_reg_dependent: 0 num_mem_ops: 0 event: 13864383
[cpu0_IFETCH] entry:  25 instr_id: 17171805 fetch_issued: true fetch_completed: true scheduled: false executed: false completed: false num_reg_dependent: 0 num_mem_ops: 1 event: 13864384
[cpu0_IFETCH] entry:  26 instr_id: 17171806 fetch_issued: true fetch_completed: true scheduled: false executed: false completed: false num_reg_dependent: 0 num_mem_ops: 1 event: 13864384
[cpu0_IFETCH] entry:  27 instr_id: 17171807 fetch_issued: true fetch_completed: true scheduled: false executed: false completed: false num_reg_dependent: 0 num_mem_ops: 1 event: 13864384
[cpu0_IFETCH] entry:  28 instr_id: 17171808 fetch_issued: true fetch_completed: true scheduled: false executed: false completed: false num_reg_dependent: 0 num_mem_ops: 1 event: 13864384
[cpu0_IFETCH] entry:  29 instr_id: 17171809 fetch_issued: true fetch_completed: true scheduled: false executed: false completed: false num_reg_dependent: 0 num_mem_ops: 1 event: 13864384
[cpu0_IFETCH] entry:  30 instr_id: 17171810 fetch_issued: true fetch_completed: true scheduled: false executed: false completed: false num_reg_dependent: 0 num_mem_ops: 1 event: 13864384
[cpu0_IFETCH] entry:  31 instr_id: 17171811 fetch_issued: true fetch_completed: true scheduled: false executed: false completed: false num_reg_dependent: 0 num_mem_ops: 0 event: 13864385
[cpu0_IFETCH] entry:  32 instr_id: 17171812 fetch_issued: true fetch_completed: true scheduled: false executed: false completed: false num_reg_dependent: 0 num_mem_ops: 1 event: 13864385
[cpu0_IFETCH] entry:  33 instr_id: 17171813 fetch_issued: true fetch_completed: true scheduled: false executed: false completed: false num_reg_dependent: 0 num_mem_ops: 0 event: 13864386
[cpu0_IFETCH] entry:  34 instr_id: 17171814 fetch_issued: true fetch_completed: true scheduled: false executed: false completed: false num_reg_dependent: 0 num_mem_ops: 0 event: 13864386
[cpu0_IFETCH] entry:  35 instr_id: 17171815 fetch_issued: true fetch_completed: true scheduled: false executed: false completed: false num_reg_dependent: 0 num_mem_ops: 0 event: 13864386
[cpu0_IFETCH] entry:  36 instr_id: 17171816 fetch_issued: true fetch_completed: true scheduled: false executed: false completed: false num_reg_dependent: 0 num_mem_ops: 0 event: 13864386
[cpu0_IFETCH] entry:  37 instr_id: 17171817 fetch_issued: true fetch_completed: true scheduled: false executed: false completed: false num_reg_dependent: 0 num_mem_ops: 0 event: 13864387
[cpu0_IFETCH] entry:  38 instr_id: 17171818 fetch_issued: true fetch_completed: true scheduled: false executed: false completed: false num_reg_dependent: 0 num_mem_ops: 0 event: 13864387
[cpu0_IFETCH] entry:  39 instr_id: 17171819 fetch_issued: true fetch_completed: true scheduled: false executed: false completed: false num_reg_dependent: 0 num_mem_ops: 0 event: 13864387
[cpu0_IFETCH] entry:  40 instr_id: 17171820 fetch_issued: true fetch_completed: true scheduled: false executed: false completed: false num_reg_dependent: 0 num_mem_ops: 0 event: 13864388
[cpu0_IFETCH] entry:  41 instr_id: 17171821 fetch_issued: true fetch_completed: true scheduled: false executed: false completed: false num_reg_dependent: 0 num_mem_ops: 0 event: 13864388
[cpu0_IFETCH] entry:  42 instr_id: 17171822 fetch_issued: true fetch_completed: true scheduled: false executed: false completed: false num_reg_dependent: 0 num_mem_ops: 1 event: 13864389
[cpu0_IFETCH] entry:  43 instr_id: 17171823 fetch_issued: true fetch_completed: true scheduled: false executed: false completed: false num_reg_dependent: 0 num_mem_ops: 1 event: 13864389
[cpu0_IFETCH] entry:  44 instr_id: 17171824 fetch_issued: true fetch_completed: true scheduled: false executed: false completed: false num_reg_dependent: 0 num_mem_ops: 1 event: 13864389
[cpu0_IFETCH] entry:  45 instr_id: 17171825 fetch_issued: true fetch_completed: true scheduled: false executed: false completed: false num_reg_dependent: 0 num_mem_ops: 1 event: 13864389
[cpu0_IFETCH] entry:  46 instr_id: 17171826 fetch_issued: true fetch_completed: true scheduled: false executed: false completed: false num_reg_dependent: 0 num_mem_ops: 1 event: 13864389
[cpu0_IFETCH] entry:  47 instr_id: 17171827 fetch_issued: true fetch_completed: true scheduled: false executed: false completed: false num_reg_dependent: 0 num_mem_ops: 1 event: 13864389
[cpu0_IFETCH] entry:  48 instr_id: 17171828 fetch_issued: true fetch_completed: true scheduled: false executed: false completed: false num_reg_dependent: 0 num_mem_ops: 0 event: 13864390
[cpu0_IFETCH] entry:  49 instr_id: 17171829 fetch_issued: true fetch_completed: true scheduled: false executed: false completed: false num_reg_dependent: 0 num_mem_ops: 1 event: 13864390
[cpu0_IFETCH] entry:  50 instr_id: 17171830 fetch_issued: true fetch_completed: true scheduled: false executed: false completed: false num_reg_dependent: 0 num_mem_ops: 0 event: 13864391
[cpu0_IFETCH] entry:  51 instr_id: 17171831 fetch_issued: true fetch_completed: true scheduled: false executed: false completed: false num_reg_dependent: 0 num_mem_ops: 0 event: 13864391
[cpu0_IFETCH] entry:  52 instr_id: 17171832 fetch_issued: true fetch_completed: true scheduled: false executed: false completed: false num_reg_dependent: 0 num_mem_ops: 0 event: 13864391
[cpu0_IFETCH] entry:  53 instr_id: 17171833 fetch_issued: true fetch_completed: true scheduled: false executed: false completed: false num_reg_dependent: 0 num_mem_ops: 0 event: 13864391
[cpu0_IFETCH] entry:  54 instr_id: 17171834 fetch_issued: true fetch_completed: true scheduled: false executed: false completed: false num_reg_dependent: 0 num_mem_ops: 1 event: 13864391
[cpu0_IFETCH] entry:  55 instr_id: 17171835 fetch_issued: true fetch_completed: true scheduled: false executed: false completed: false num_reg_dependent: 0 num_mem_ops: 1 event: 13864392
[cpu0_IFETCH] entry:  56 instr_id: 17171836 fetch_issued: true fetch_completed: true scheduled: false executed: false completed: false num_reg_dependent: 0 num_mem_ops: 1 event: 13864392
[cpu0_IFETCH] entry:  57 instr_id: 17171837 fetch_issued: true fetch_completed: true scheduled: false executed: false completed: false num_reg_dependent: 0 num_mem_ops: 0 event: 13864392
[cpu0_IFETCH] entry:  58 instr_id: 17171838 fetch_issued: true fetch_completed: true scheduled: false executed: false completed: false num_reg_dependent: 0 num_mem_ops: 1 event: 13864392
[cpu0_IFETCH] entry:  59 instr_id: 17171839 fetch_issued: true fetch_completed: true scheduled: false executed: false completed: false num_reg_dependent: 0 num_mem_ops: 1 event: 13864392
[cpu0_IFETCH] entry:  60 instr_id: 17171840 fetch_issued: true fetch_completed: true scheduled: false executed: false completed: false num_reg_dependent: 0 num_mem_ops: 1 event: 13864392
[cpu0_IFETCH] entry:  61 instr_id: 17171841 fetch_issued: true fetch_completed: true scheduled: false executed: false completed: false num_reg_dependent: 0 num_mem_ops: 0 event: 13864393
[cpu0_IFETCH] entry:  62 instr_id: 17171842 fetch_issued: true fetch_completed: true scheduled: false executed: false completed: false num_reg_dependent: 0 num_mem_ops: 1 event: 13864393
[cpu0_IFETCH] entry:  63 instr_id: 17171843 fetch_issued: true fetch_completed: true scheduled: false executed: false completed: false num_reg_dependent: 0 num_mem_ops: 0 event: 13864393

[cpu0_DECODE] entry:   0 instr_id: 17171777 fetch_issued: true fetch_completed: true scheduled: false executed: false completed: false num_reg_dependent: 0 num_mem_ops: 0 event: 13864384
[cpu0_DECODE] entry:   1 instr_id: 17171778 fetch_issued: true fetch_completed: true scheduled: false executed: false completed: false num_reg_dependent: 0 num_mem_ops: 0 event: 13864385

[cpu0_DISPATCH] entry:   0 instr_id: 17171714 fetch_issued: true fetch_completed: true scheduled: false executed: false completed: false num_reg_dependent: 0 num_mem_ops: 1 event: 13864378
[cpu0_DISPATCH] entry:   1 instr_id: 17171715 fetch_issued: true fetch_completed: true scheduled: false executed: false completed: false num_reg_dependent: 0 num_mem_ops: 0 event: 13864378
[cpu0_DISPATCH] entry:   2 instr_id: 17171716 fetch_issued: true fetch_completed: true scheduled: false executed: false completed: false num_reg_dependent: 0 num_mem_ops: 0 event: 13864379
[cpu0_DISPATCH] entry:   3 instr_id: 17171717 fetch_issued: true fetch_completed: true scheduled: false executed: false completed: false num_reg_dependent: 0 num_mem_ops: 0 event: 13864379
[cpu0_DISPATCH] entry:   4 instr_id: 17171718 fetch_issued: true fetch_completed: true scheduled: false executed: false completed: false num_reg_dependent: 0 num_mem_ops: 1 event: 13864379
[cpu0_DISPATCH] entry:   5 instr_id: 17171719 fetch_issued: true fetch_completed: true scheduled: false executed: false completed: false num_reg_dependent: 0 num_mem_ops: 1 event: 13864379
[cpu0_DISPATCH] entry:   6 instr_id: 17171720 fetch_issued: true fetch_completed: true scheduled: false executed: false completed: false num_reg_dependent: 0 num_mem_ops: 1 event: 13864379
[cpu0_DISPATCH] entry:   7 instr_id: 17171721 fetch_issued: true fetch_completed: true scheduled: false executed: false completed: false num_reg_dependent: 0 num_mem_ops: 0 event: 13864380
[cpu0_DISPATCH] entry:   8 instr_id: 17171722 fetch_issued: true fetch_completed: true scheduled: false executed: false completed: false num_reg_dependent: 0 num_mem_ops: 1 event: 13864380
[cpu0_DISPATCH] entry:   9 instr_id: 17171723 fetch_issued: true fetch_completed: true scheduled: false executed: false completed: false num_reg_dependent: 0 num_mem_ops: 1 event: 13864380
[cpu0_DISPATCH] entry:  10 instr_id: 17171724 fetch_issued: true fetch_completed: true scheduled: false executed: false completed: false num_reg_dependent: 0 num_mem_ops: 1 event: 13864380
[cpu0_DISPATCH] entry:  11 instr_id: 17171725 fetch_issued: true fetch_completed: true scheduled: false executed: false completed: false num_reg_dependent: 0 num_mem_ops: 1 event: 13864380
[cpu0_DISPATCH] entry:  12 instr_id: 17171726 fetch_issued: true fetch_completed: true scheduled: false executed: false completed: false num_reg_dependent: 0 num_mem_ops: 0 event: 13864381
[cpu0_DISPATCH] entry:  13 instr_id: 17171727 fetch_issued: true fetch_completed: true scheduled: false executed: false completed: false num_reg_dependent: 0 num_mem_ops: 1 event: 13864381
[cpu0_DISPATCH] entry:  14 instr_id: 17171728 fetch_issued: true fetch_completed: true scheduled: false executed: false completed: false num_reg_dependent: 0 num_mem_ops: 0 event: 13864381
[cpu0_DISPATCH] entry:  15 instr_id: 17171729 fetch_issued: true fetch_completed: true scheduled: false executed: false completed: false num_reg_dependent: 0 num_mem_ops: 0 event: 13864381
[cpu0_DISPATCH] entry:  16 instr_id: 17171730 fetch_issued: true fetch_completed: true scheduled: false executed: false completed: false num_reg_dependent: 0 num_mem_ops: 0 event: 13864381
[cpu0_DISPATCH] entry:  17 instr_id: 17171731 fetch_issued: true fetch_completed: true scheduled: false executed: false completed: false num_reg_dependent: 0 num_mem_ops: 0 event: 13864382
[cpu0_DISPATCH] entry:  18 instr_id: 17171732 fetch_issued: true fetch_completed: true scheduled: false executed: false completed: false num_reg_dependent: 0 num_mem_ops: 1 event: 13864382
[cpu0_DISPATCH] entry:  19 instr_id: 17171733 fetch_issued: true fetch_completed: true scheduled: false executed: false completed: false num_reg_dependent: 0 num_mem_ops: 0 event: 13864382
[cpu0_DISPATCH] entry:  20 instr_id: 17171734 fetch_issued: true fetch_completed: true scheduled: false executed: false completed: false num_reg_dependent: 0 num_mem_ops: 1 event: 13864382
[cpu0_DISPATCH] entry:  21 instr_id: 17171735 fetch_issued: true fetch_completed: true scheduled: false executed: false completed: false num_reg_dependent: 0 num_mem_ops: 1 event: 13864382
[cpu0_DISPATCH] entry:  22 instr_id: 17171736 fetch_issued: true fetch_completed: true scheduled: false executed: false completed: false num_reg_dependent: 0 num_mem_ops: 0 event: 13864383
[cpu0_DISPATCH] entry:  23 instr_id: 17171737 fetch_issued: true fetch_completed: true scheduled: false executed: false completed: false num_reg_dependent: 0 num_mem_ops: 0 event: 13864383
[cpu0_DISPATCH] entry:  24 instr_id: 17171738 fetch_issued: true fetch_completed: true scheduled: false executed: false completed: false num_reg_dependent: 0 num_mem_ops: 0 event: 13864383
[cpu0_DISPATCH] entry:  25 instr_id: 17171739 fetch_issued: true fetch_completed: true scheduled: false executed: false completed: false num_reg_dependent: 0 num_mem_ops: 0 event: 13864383
[cpu0_DISPATCH] entry:  26 instr_id: 17171740 fetch_issued: true fetch_completed: true scheduled: false executed: false completed: false num_reg_dependent: 0 num_mem_ops: 0 event: 13864383
[cpu0_DISPATCH] entry:  27 instr_id: 17171741 fetch_issued: true fetch_completed: true scheduled: false executed: false completed: false num_reg_dependent: 0 num_mem_ops: 0 event: 13864384
[cpu0_DISPATCH] entry:  28 instr_id: 17171742 fetch_issued: true fetch_completed: true scheduled: false executed: false completed: false num_reg_dependent: 0 num_mem_ops: 0 event: 13864384
[cpu0_DISPATCH] entry:  29 instr_id: 17171743 fetch_issued: true fetch_completed: true scheduled: false executed: false completed: false num_reg_dependent: 0 num_mem_ops: 0 event: 13864384
[cpu0_DISPATCH] entry:  30 instr_id: 17171744 fetch_issued: true fetch_completed: true scheduled: false executed: false completed: false num_reg_dependent: 0 num_mem_ops: 1 event: 13864384
[cpu0_DISPATCH] entry:  31 instr_id: 17171745 fetch_issued: true fetch_completed: true scheduled: false executed: false completed: false num_reg_dependent: 0 num_mem_ops: 0 event: 13864384

[cpu0_ROB] entry:   0 instr_id: 17171362 fetch_issued: true fetch_completed: true scheduled: true executed: true completed: false num_reg_dependent: 0 num_mem_ops: 1 event: 13864298
[cpu0_ROB] entry:   1 instr_id: 17171363 fetch_issued: true fetch_completed: true scheduled: true executed: true completed: true num_reg_dependent: 0 num_mem_ops: 0 event: 13864298
[cpu0_ROB] entry:   2 instr_id: 17171364 fetch_issued: true fetch_completed: true scheduled: true executed: true completed: true num_reg_dependent: 0 num_mem_ops: 0 event: 13864298
[cpu0_ROB] entry:   3 instr_id: 17171365 fetch_issued: true fetch_completed: true scheduled: true executed: true completed: true num_reg_dependent: 0 num_mem_ops: 0 event: 13864299
[cpu0_ROB] entry:   4 instr_id: 17171366 fetch_issued: true fetch_completed: true scheduled: true executed: true completed: true num_reg_dependent: 0 num_mem_ops: 0 event: 13864299
[cpu0_ROB] entry:   5 instr_id: 17171367 fetch_issued: true fetch_completed: true scheduled: true executed: true completed: false num_reg_dependent: 0 num_mem_ops: 1 event: 13864299
[cpu0_ROB] entry:   6 instr_id: 17171368 fetch_issued: true fetch_completed: true scheduled: true executed: true completed: true num_reg_dependent: 0 num_mem_ops: 0 event: 13864299
[cpu0_ROB] entry:   7 instr_id: 17171369 fetch_issued: true fetch_completed: true scheduled: true executed: true completed: true num_reg_dependent: 0 num_mem_ops: 0 event: 13864300
[cpu0_ROB] entry:   8 instr_id: 17171370 fetch_issued: true fetch_completed: true scheduled: true executed: true completed: false num_reg_dependent: 0 num_mem_ops: 1 event: 13864300
[cpu0_ROB] entry:   9 instr_id: 17171371 fetch_issued: true fetch_completed: true scheduled: true executed: true completed: false num_reg_dependent: 0 num_mem_ops: 1 event: 13864300
[cpu0_ROB] entry:  10 instr_id: 17171372 fetch_issued: true fetch_completed: true scheduled: true executed: true completed: true num_reg_dependent: 0 num_mem_ops: 0 event: 13864300
[cpu0_ROB] entry:  11 instr_id: 17171373 fetch_issued: true fetch_completed: true scheduled: true executed: true completed: false num_reg_dependent: 0 num_mem_ops: 1 event: 13864301
[cpu0_ROB] entry:  12 instr_id: 17171374 fetch_issued: true fetch_completed: true scheduled: true executed: true completed: false num_reg_dependent: 0 num_mem_ops: 1 event: 13864301
[cpu0_ROB] entry:  13 instr_id: 17171375 fetch_issued: true fetch_completed: true scheduled: true executed: true completed: false num_reg_dependent: 0 num_mem_ops: 1 event: 13864301
[cpu0_ROB] entry:  14 instr_id: 17171376 fetch_issued: true fetch_completed: true scheduled: true executed: true completed: true num_reg_dependent: 0 num_mem_ops: 0 event: 13864303
[cpu0_ROB] entry:  15 instr_id: 17171377 fetch_issued: true fetch_completed: true scheduled: true executed: true completed: true num_reg_dependent: 0 num_mem_ops: 0 event: 13864303
[cpu0_ROB] entry:  16 instr_id: 17171378 fetch_issued: true fetch_completed: true scheduled: true executed: true completed: true num_reg_dependent: 0 num_mem_ops: 0 event: 13864303
[cpu0_ROB] entry:  17 instr_id: 17171379 fetch_issued: true fetch_completed: true scheduled: true executed: true completed: true num_reg_dependent: 0 num_mem_ops: 0 event: 13864303
[cpu0_ROB] entry:  18 instr_id: 17171380 fetch_issued: true fetch_completed: true scheduled: true executed: true completed: true num_reg_dependent: 0 num_mem_ops: 0 event: 13864304
[cpu0_ROB] entry:  19 instr_id: 17171381 fetch_issued: true fetch_completed: true scheduled: true executed: true completed: true num_reg_dependent: 0 num_mem_ops: 0 event: 13864304
[cpu0_ROB] entry:  20 instr_id: 17171382 fetch_issued: true fetch_completed: true scheduled: true executed: true completed: true num_reg_dependent: 0 num_mem_ops: 0 event: 13864304
[cpu0_ROB] entry:  21 instr_id: 17171383 fetch_issued: true fetch_completed: true scheduled: true executed: true completed: true num_reg_dependent: 0 num_mem_ops: 0 event: 13864304
[cpu0_ROB] entry:  22 instr_id: 17171384 fetch_issued: true fetch_completed: true scheduled: true executed: true completed: true num_reg_dependent: 0 num_mem_ops: 0 event: 13864305
[cpu0_ROB] entry:  23 instr_id: 17171385 fetch_issued: true fetch_completed: true scheduled: true executed: true completed: true num_reg_dependent: 0 num_mem_ops: 0 event: 13864305
[cpu0_ROB] entry:  24 instr_id: 17171386 fetch_issued: true fetch_completed: true scheduled: true executed: true completed: true num_reg_dependent: 0 num_mem_ops: 0 event: 13864305
[cpu0_ROB] entry:  25 instr_id: 17171387 fetch_issued: true fetch_completed: true scheduled: true executed: true completed: true num_reg_dependent: 0 num_mem_ops: 0 event: 13864305
[cpu0_ROB] entry:  26 instr_id: 17171388 fetch_issued: true fetch_completed: true scheduled: true executed: true completed: true num_reg_dependent: 0 num_mem_ops: 0 event: 13864306
[cpu0_ROB] entry:  27 instr_id: 17171389 fetch_issued: true fetch_completed: true scheduled: true executed: true completed: true num_reg_dependent: 0 num_mem_ops: 0 event: 13864306
[cpu0_ROB] entry:  28 instr_id: 17171390 fetch_issued: true fetch_completed: true scheduled: true executed: true completed: true num_reg_dependent: 0 num_mem_ops: 0 event: 13864306
[cpu0_ROB] entry:  29 instr_id: 17171391 fetch_issued: true fetch_completed: true scheduled: true executed: true completed: true num_reg_dependent: 0 num_mem_ops: 0 event: 13864306
[cpu0_ROB] entry:  30 instr_id: 17171392 fetch_issued: true fetch_completed: true scheduled: true executed: true completed: true num_reg_dependent: 0 num_mem_ops: 0 event: 13864307
[cpu0_ROB] entry:  31 instr_id: 17171393 fetch_issued: true fetch_completed: true scheduled: true executed: true completed: true num_reg_dependent: 0 num_mem_ops: 0 event: 13864307
[cpu0_ROB] entry:  32 instr_id: 17171394 fetch_issued: true fetch_completed: true scheduled: true executed: true completed: true num_reg_dependent: 0 num_mem_ops: 0 event: 13864307
[cpu0_ROB] entry:  33 instr_id: 17171395 fetch_issued: true fetch_completed: true scheduled: true executed: true completed: true num_reg_dependent: 0 num_mem_ops: 0 event: 13864307
[cpu0_ROB] entry:  34 instr_id: 17171396 fetch_issued: true fetch_completed: true scheduled: true executed: true completed: true num_reg_dependent: 0 num_mem_ops: 0 event: 13864308
[cpu0_ROB] entry:  35 instr_id: 17171397 fetch_issued: true fetch_completed: true scheduled: true executed: true completed: true num_reg_dependent: 0 num_mem_ops: 0 event: 13864308
[cpu0_ROB] entry:  36 instr_id: 17171398 fetch_issued: true fetch_completed: true scheduled: true executed: true completed: true num_reg_dependent: 0 num_mem_ops: 0 event: 13864308
[cpu0_ROB] entry:  37 instr_id: 17171399 fetch_issued: true fetch_completed: true scheduled: true executed: true completed: true num_reg_dependent: 0 num_mem_ops: 0 event: 13864308
[cpu0_ROB] entry:  38 instr_id: 17171400 fetch_issued: true fetch_completed: true scheduled: true executed: true completed: true num_reg_dependent: 0 num_mem_ops: 0 event: 13864309
[cpu0_ROB] entry:  39 instr_id: 17171401 fetch_issued: true fetch_completed: true scheduled: true executed: true completed: true num_reg_dependent: 0 num_mem_ops: 0 event: 13864309
[cpu0_ROB] entry:  40 instr_id: 17171402 fetch_issued: true fetch_completed: true scheduled: true executed: true completed: true num_reg_dependent: 0 num_mem_ops: 0 event: 13864309
[cpu0_ROB] entry:  41 instr_id: 17171403 fetch_issued: true fetch_completed: true scheduled: true executed: true completed: true num_reg_dependent: 0 num_mem_ops: 0 event: 13864309
[cpu0_ROB] entry:  42 instr_id: 17171404 fetch_issued: true fetch_completed: true scheduled: true executed: true completed: true num_reg_dependent: 0 num_mem_ops: 0 event: 13864310
[cpu0_ROB] entry:  43 instr_id: 17171405 fetch_issued: true fetch_completed: true scheduled: true executed: true completed: true num_reg_dependent: 0 num_mem_ops: 0 event: 13864310
[cpu0_ROB] entry:  44 instr_id: 17171406 fetch_issued: true fetch_completed: true scheduled: true executed: true completed: true num_reg_dependent: 0 num_mem_ops: 0 event: 13864310
[cpu0_ROB] entry:  45 instr_id: 17171407 fetch_issued: true fetch_completed: true scheduled: true executed: true completed: true num_reg_dependent: 0 num_mem_ops: 0 event: 13864310
[cpu0_ROB] entry:  46 instr_id: 17171408 fetch_issued: true fetch_completed: true scheduled: true executed: true completed: true num_reg_dependent: 0 num_mem_ops: 0 event: 13864311
[cpu0_ROB] entry:  47 instr_id: 17171409 fetch_issued: true fetch_completed: true scheduled: true executed: true completed: true num_reg_dependent: 0 num_mem_ops: 0 event: 13864311
[cpu0_ROB] entry:  48 instr_id: 17171410 fetch_issued: true fetch_completed: true scheduled: true executed: true completed: true num_reg_dependent: 0 num_mem_ops: 0 event: 13864311
[cpu0_ROB] entry:  49 instr_id: 17171411 fetch_issued: true fetch_completed: true scheduled: true executed: true completed: true num_reg_dependent: 0 num_mem_ops: 0 event: 13864311
[cpu0_ROB] entry:  50 instr_id: 17171412 fetch_issued: true fetch_completed: true scheduled: true executed: true completed: true num_reg_dependent: 0 num_mem_ops: 0 event: 13864312
[cpu0_ROB] entry:  51 instr_id: 17171413 fetch_issued: true fetch_completed: true scheduled: true executed: true completed: true num_reg_dependent: 0 num_mem_ops: 0 event: 13864312
[cpu0_ROB] entry:  52 instr_id: 17171414 fetch_issued: true fetch_completed: true scheduled: true executed: true completed: true num_reg_dependent: 0 num_mem_ops: 0 event: 13864312
[cpu0_ROB] entry:  53 instr_id: 17171415 fetch_issued: true fetch_completed: true scheduled: true executed: true completed: true num_reg_dependent: 0 num_mem_ops: 0 event: 13864312
[cpu0_ROB] entry:  54 instr_id: 17171416 fetch_issued: true fetch_completed: true scheduled: true executed: true completed: true num_reg_dependent: 0 num_mem_ops: 0 event: 13864313
[cpu0_ROB] entry:  55 instr_id: 17171417 fetch_issued: true fetch_completed: true scheduled: true executed: true completed: true num_reg_dependent: 0 num_mem_ops: 0 event: 13864313
[cpu0_ROB] entry:  56 instr_id: 17171418 fetch_issued: true fetch_completed: true scheduled: true executed: true completed: true num_reg_dependent: 0 num_mem_ops: 0 event: 13864313
[cpu0_ROB] entry:  57 instr_id: 17171419 fetch_issued: true fetch_completed: true scheduled: true executed: true completed: true num_reg_dependent: 0 num_mem_ops: 0 event: 13864313
[cpu0_ROB] entry:  58 instr_id: 17171420 fetch_issued: true fetch_completed: true scheduled: true executed: true completed: true num_reg_dependent: 0 num_mem_ops: 0 event: 13864314
[cpu0_ROB] entry:  59 instr_id: 17171421 fetch_issued: true fetch_completed: true scheduled: true executed: true completed: true num_reg_dependent: 0 num_mem_ops: 0 event: 13864314
[cpu0_ROB] entry:  60 instr_id: 17171422 fetch_issued: true fetch_completed: true scheduled: true executed: true completed: true num_reg_dependent: 0 num_mem_ops: 0 event: 13864314
[cpu0_ROB] entry:  61 instr_id: 17171423 fetch_issued: true fetch_completed: true scheduled: true executed: true completed: true num_reg_dependent: 0 num_mem_ops: 0 event: 13864314
[cpu0_ROB] entry:  62 instr_id: 17171424 fetch_issued: true fetch_completed: true scheduled: true executed: true completed: true num_reg_dependent: 0 num_mem_ops: 0 event: 13864315
[cpu0_ROB] entry:  63 instr_id: 17171425 fetch_issued: true fetch_completed: true scheduled: true executed: true completed: true num_reg_dependent: 0 num_mem_ops: 0 event: 13864315
[cpu0_ROB] entry:  64 instr_id: 17171426 fetch_issued: true fetch_completed: true scheduled: true executed: true completed: true num_reg_dependent: 0 num_mem_ops: 0 event: 13864315
[cpu0_ROB] entry:  65 instr_id: 17171427 fetch_issued: true fetch_completed: true scheduled: true executed: true completed: true num_reg_dependent: 0 num_mem_ops: 0 event: 13864315
[cpu0_ROB] entry:  66 instr_id: 17171428 fetch_issued: true fetch_completed: true scheduled: true executed: true completed: true num_reg_dependent: 0 num_mem_ops: 0 event: 13864316
[cpu0_ROB] entry:  67 instr_id: 17171429 fetch_issued: true fetch_completed: true scheduled: true executed: true completed: true num_reg_dependent: 0 num_mem_ops: 0 event: 13864316
[cpu0_ROB] entry:  68 instr_id: 17171430 fetch_issued: true fetch_completed: true scheduled: true executed: true completed: true num_reg_dependent: 0 num_mem_ops: 0 event: 13864316
[cpu0_ROB] entry:  69 instr_id: 17171431 fetch_issued: true fetch_completed: true scheduled: true executed: true completed: true num_reg_dependent: 0 num_mem_ops: 0 event: 13864316
[cpu0_ROB] entry:  70 instr_id: 17171432 fetch_issued: true fetch_completed: true scheduled: true executed: true completed: true num_reg_dependent: 0 num_mem_ops: 0 event: 13864317
[cpu0_ROB] entry:  71 instr_id: 17171433 fetch_issued: true fetch_completed: true scheduled: true executed: true completed: true num_reg_dependent: 0 num_mem_ops: 0 event: 13864317
[cpu0_ROB] entry:  72 instr_id: 17171434 fetch_issued: true fetch_completed: true scheduled: true executed: true completed: true num_reg_dependent: 0 num_mem_ops: 0 event: 13864317
[cpu0_ROB] entry:  73 instr_id: 17171435 fetch_issued: true fetch_completed: true scheduled: true executed: true completed: true num_reg_dependent: 0 num_mem_ops: 0 event: 13864317
[cpu0_ROB] entry:  74 instr_id: 17171436 fetch_issued: true fetch_completed: true scheduled: true executed: true completed: true num_reg_dependent: 0 num_mem_ops: 0 event: 13864318
[cpu0_ROB] entry:  75 instr_id: 17171437 fetch_issued: true fetch_completed: true scheduled: true executed: true completed: true num_reg_dependent: 0 num_mem_ops: 0 event: 13864318
[cpu0_ROB] entry:  76 instr_id: 17171438 fetch_issued: true fetch_completed: true scheduled: true executed: true completed: true num_reg_dependent: 0 num_mem_ops: 0 event: 13864318
[cpu0_ROB] entry:  77 instr_id: 17171439 fetch_issued: true fetch_completed: true scheduled: true executed: true completed: true num_reg_dependent: 0 num_mem_ops: 0 event: 13864318
[cpu0_ROB] entry:  78 instr_id: 17171440 fetch_issued: true fetch_completed: true scheduled: true executed: true completed: true num_reg_dependent: 0 num_mem_ops: 0 event: 13864319
[cpu0_ROB] entry:  79 instr_id: 17171441 fetch_issued: true fetch_completed: true scheduled: true executed: true completed: true num_reg_dependent: 0 num_mem_ops: 0 event: 13864319
[cpu0_ROB] entry:  80 instr_id: 17171442 fetch_issued: true fetch_completed: true scheduled: true executed: true completed: true num_reg_dependent: 0 num_mem_ops: 0 event: 13864319
[cpu0_ROB] entry:  81 instr_id: 17171443 fetch_issued: true fetch_completed: true scheduled: true executed: true completed: true num_reg_dependent: 0 num_mem_ops: 0 event: 13864319
[cpu0_ROB] entry:  82 instr_id: 17171444 fetch_issued: true fetch_completed: true scheduled: true executed: true completed: true num_reg_dependent: 0 num_mem_ops: 0 event: 13864320
[cpu0_ROB] entry:  83 instr_id: 17171445 fetch_issued: true fetch_completed: true scheduled: true executed: true completed: true num_reg_dependent: 0 num_mem_ops: 0 event: 13864320
[cpu0_ROB] entry:  84 instr_id: 17171446 fetch_issued: true fetch_completed: true scheduled: true executed: true completed: true num_reg_dependent: 0 num_mem_ops: 0 event: 13864320
[cpu0_ROB] entry:  85 instr_id: 17171447 fetch_issued: true fetch_completed: true scheduled: true executed: true completed: true num_reg_dependent: 0 num_mem_ops: 0 event: 13864320
[cpu0_ROB] entry:  86 instr_id: 17171448 fetch_issued: true fetch_completed: true scheduled: true executed: true completed: true num_reg_dependent: 0 num_mem_ops: 0 event: 13864321
[cpu0_ROB] entry:  87 instr_id: 17171449 fetch_issued: true fetch_completed: true scheduled: true executed: true completed: true num_reg_dependent: 0 num_mem_ops: 0 event: 13864321
[cpu0_ROB] entry:  88 instr_id: 17171450 fetch_issued: true fetch_completed: true scheduled: true executed: true completed: true num_reg_dependent: 0 num_mem_ops: 0 event: 13864321
[cpu0_ROB] entry:  89 instr_id: 17171451 fetch_issued: true fetch_completed: true scheduled: true executed: true completed: true num_reg_dependent: 0 num_mem_ops: 0 event: 13864321
[cpu0_ROB] entry:  90 instr_id: 17171452 fetch_issued: true fetch_completed: true scheduled: true executed: true completed: true num_reg_dependent: 0 num_mem_ops: 0 event: 13864322
[cpu0_ROB] entry:  91 instr_id: 17171453 fetch_issued: true fetch_completed: true scheduled: true executed: true completed: true num_reg_dependent: 0 num_mem_ops: 0 event: 13864322
[cpu0_ROB] entry:  92 instr_id: 17171454 fetch_issued: true fetch_completed: true scheduled: true executed: true completed: true num_reg_dependent: 0 num_mem_ops: 0 event: 13864322
[cpu0_ROB] entry:  93 instr_id: 17171455 fetch_issued: true fetch_completed: true scheduled: true executed: true completed: true num_reg_dependent: 0 num_mem_ops: 0 event: 13864322
[cpu0_ROB] entry:  94 instr_id: 17171456 fetch_issued: true fetch_completed: true scheduled: true executed: true completed: true num_reg_dependent: 0 num_mem_ops: 0 event: 13864323
[cpu0_ROB] entry:  95 instr_id: 17171457 fetch_issued: true fetch_completed: true scheduled: true executed: true completed: true num_reg_dependent: 0 num_mem_ops: 0 event: 13864323
[cpu0_ROB] entry:  96 instr_id: 17171458 fetch_issued: true fetch_completed: true scheduled: true executed: true completed: true num_reg_dependent: 0 num_mem_ops: 0 event: 13864323
[cpu0_ROB] entry:  97 instr_id: 17171459 fetch_issued: true fetch_completed: true scheduled: true executed: true completed: true num_reg_dependent: 0 num_mem_ops: 0 event: 13864323
[cpu0_ROB] entry:  98 instr_id: 17171460 fetch_issued: true fetch_completed: true scheduled: true executed: true completed: true num_reg_dependent: 0 num_mem_ops: 0 event: 13864324
[cpu0_ROB] entry:  99 instr_id: 17171461 fetch_issued: true fetch_completed: true scheduled: true executed: true completed: true num_reg_dependent: 0 num_mem_ops: 0 event: 13864324
[cpu0_ROB] entry: 100 instr_id: 17171462 fetch_issued: true fetch_completed: true scheduled: true executed: true completed: true num_reg_dependent: 0 num_mem_ops: 0 event: 13864324
[cpu0_ROB] entry: 101 instr_id: 17171463 fetch_issued: true fetch_completed: true scheduled: true executed: true completed: true num_reg_dependent: 0 num_mem_ops: 0 event: 13864324
[cpu0_ROB] entry: 102 instr_id: 17171464 fetch_issued: true fetch_completed: true scheduled: true executed: true completed: true num_reg_dependent: 0 num_mem_ops: 0 event: 13864325
[cpu0_ROB] entry: 103 instr_id: 17171465 fetch_issued: true fetch_completed: true scheduled: true executed: true completed: true num_reg_dependent: 0 num_mem_ops: 0 event: 13864325
[cpu0_ROB] entry: 104 instr_id: 17171466 fetch_issued: true fetch_completed: true scheduled: true executed: true completed: true num_reg_dependent: 0 num_mem_ops: 0 event: 13864325
[cpu0_ROB] entry: 105 instr_id: 17171467 fetch_issued: true fetch_completed: true scheduled: true executed: true completed: true num_reg_dependent: 0 num_mem_ops: 0 event: 13864325
[cpu0_ROB] entry: 106 instr_id: 17171468 fetch_issued: true fetch_completed: true scheduled: true executed: true completed: true num_reg_dependent: 0 num_mem_ops: 0 event: 13864326
[cpu0_ROB] entry: 107 instr_id: 17171469 fetch_issued: true fetch_completed: true scheduled: true executed: true completed: true num_reg_dependent: 0 num_mem_ops: 0 event: 13864326
[cpu0_ROB] entry: 108 instr_id: 17171470 fetch_issued: true fetch_completed: true scheduled: true executed: true completed: true num_reg_dependent: 0 num_mem_ops: 0 event: 13864326
[cpu0_ROB] entry: 109 instr_id: 17171471 fetch_issued: true fetch_completed: true scheduled: true executed: true completed: true num_reg_dependent: 0 num_mem_ops: 0 event: 13864326
[cpu0_ROB] entry: 110 instr_id: 17171472 fetch_issued: true fetch_completed: true scheduled: true executed: true completed: true num_reg_dependent: 0 num_mem_ops: 0 event: 13864327
[cpu0_ROB] entry: 111 instr_id: 17171473 fetch_issued: true fetch_completed: true scheduled: true executed: true completed: true num_reg_dependent: 0 num_mem_ops: 0 event: 13864327
[cpu0_ROB] entry: 112 instr_id: 17171474 fetch_issued: true fetch_completed: true scheduled: true executed: true completed: true num_reg_dependent: 0 num_mem_ops: 0 event: 13864327
[cpu0_ROB] entry: 113 instr_id: 17171475 fetch_issued: true fetch_completed: true scheduled: true executed: true completed: true num_reg_dependent: 0 num_mem_ops: 0 event: 13864327
[cpu0_ROB] entry: 114 instr_id: 17171476 fetch_issued: true fetch_completed: true scheduled: true executed: true completed: true num_reg_dependent: 0 num_mem_ops: 0 event: 13864328
[cpu0_ROB] entry: 115 instr_id: 17171477 fetch_issued: true fetch_completed: true scheduled: true executed: true completed: true num_reg_dependent: 0 num_mem_ops: 0 event: 13864328
[cpu0_ROB] entry: 116 instr_id: 17171478 fetch_issued: true fetch_completed: true scheduled: true executed: true completed: true num_reg_dependent: 0 num_mem_ops: 0 event: 13864328
[cpu0_ROB] entry: 117 instr_id: 17171479 fetch_issued: true fetch_completed: true scheduled: true executed: true completed: true num_reg_dependent: 0 num_mem_ops: 0 event: 13864328
[cpu0_ROB] entry: 118 instr_id: 17171480 fetch_issued: true fetch_completed: true scheduled: true executed: true completed: true num_reg_dependent: 0 num_mem_ops: 0 event: 13864329
[cpu0_ROB] entry: 119 instr_id: 17171481 fetch_issued: true fetch_completed: true scheduled: true executed: true completed: true num_reg_dependent: 0 num_mem_ops: 0 event: 13864329
[cpu0_ROB] entry: 120 instr_id: 17171482 fetch_issued: true fetch_completed: true scheduled: true executed: true completed: true num_reg_dependent: 0 num_mem_ops: 0 event: 13864329
[cpu0_ROB] entry: 121 instr_id: 17171483 fetch_issued: true fetch_completed: true scheduled: true executed: true completed: true num_reg_dependent: 0 num_mem_ops: 0 event: 13864329
[cpu0_ROB] entry: 122 instr_id: 17171484 fetch_issued: true fetch_completed: true scheduled: true executed: true completed: true num_reg_dependent: 0 num_mem_ops: 0 event: 13864330
[cpu0_ROB] entry: 123 instr_id: 17171485 fetch_issued: true fetch_completed: true scheduled: true executed: true completed: true num_reg_dependent: 0 num_mem_ops: 0 event: 13864330
[cpu0_ROB] entry: 124 instr_id: 17171486 fetch_issued: true fetch_completed: true scheduled: true executed: true completed: true num_reg_dependent: 0 num_mem_ops: 0 event: 13864330
[cpu0_ROB] entry: 125 instr_id: 17171487 fetch_issued: true fetch_completed: true scheduled: true executed: true completed: true num_reg_dependent: 0 num_mem_ops: 0 event: 13864330
[cpu0_ROB] entry: 126 instr_id: 17171488 fetch_issued: true fetch_completed: true scheduled: true executed: true completed: true num_reg_dependent: 0 num_mem_ops: 0 event: 13864331
[cpu0_ROB] entry: 127 instr_id: 17171489 fetch_issued: true fetch_completed: true scheduled: true executed: true completed: true num_reg_dependent: 0 num_mem_ops: 0 event: 13864331
[cpu0_ROB] entry: 128 instr_id: 17171490 fetch_issued: true fetch_completed: true scheduled: true executed: true completed: true num_reg_dependent: 0 num_mem_ops: 0 event: 13864331
[cpu0_ROB] entry: 129 instr_id: 17171491 fetch_issued: true fetch_completed: true scheduled: true executed: true completed: true num_reg_dependent: 0 num_mem_ops: 0 event: 13864331
[cpu0_ROB] entry: 130 instr_id: 17171492 fetch_issued: true fetch_completed: true scheduled: true executed: true completed: true num_reg_dependent: 0 num_mem_ops: 0 event: 13864332
[cpu0_ROB] entry: 131 instr_id: 17171493 fetch_issued: true fetch_completed: true scheduled: true executed: true completed: true num_reg_dependent: 0 num_mem_ops: 0 event: 13864332
[cpu0_ROB] entry: 132 instr_id: 17171494 fetch_issued: true fetch_completed: true scheduled: true executed: true completed: true num_reg_dependent: 0 num_mem_ops: 0 event: 13864332
[cpu0_ROB] entry: 133 instr_id: 17171495 fetch_issued: true fetch_completed: true scheduled: true executed: true completed: true num_reg_dependent: 0 num_mem_ops: 0 event: 13864332
[cpu0_ROB] entry: 134 instr_id: 17171496 fetch_issued: true fetch_completed: true scheduled: true executed: true completed: true num_reg_dependent: 0 num_mem_ops: 0 event: 13864333
[cpu0_ROB] entry: 135 instr_id: 17171497 fetch_issued: true fetch_completed: true scheduled: true executed: true completed: true num_reg_dependent: 0 num_mem_ops: 0 event: 13864333
[cpu0_ROB] entry: 136 instr_id: 17171498 fetch_issued: true fetch_completed: true scheduled: true executed: true completed: true num_reg_dependent: 0 num_mem_ops: 0 event: 13864333
[cpu0_ROB] entry: 137 instr_id: 17171499 fetch_issued: true fetch_completed: true scheduled: true executed: true completed: true num_reg_dependent: 0 num_mem_ops: 0 event: 13864333
[cpu0_ROB] entry: 138 instr_id: 17171500 fetch_issued: true fetch_completed: true scheduled: true executed: true completed: true num_reg_dependent: 0 num_mem_ops: 0 event: 13864334
[cpu0_ROB] entry: 139 instr_id: 17171501 fetch_issued: true fetch_completed: true scheduled: true executed: true completed: true num_reg_dependent: 0 num_mem_ops: 0 event: 13864334
[cpu0_ROB] entry: 140 instr_id: 17171502 fetch_issued: true fetch_completed: true scheduled: true executed: true completed: true num_reg_dependent: 0 num_mem_ops: 0 event: 13864334
[cpu0_ROB] entry: 141 instr_id: 17171503 fetch_issued: true fetch_completed: true scheduled: true executed: true completed: true num_reg_dependent: 0 num_mem_ops: 0 event: 13864334
[cpu0_ROB] entry: 142 instr_id: 17171504 fetch_issued: true fetch_completed: true scheduled: true executed: true completed: true num_reg_dependent: 0 num_mem_ops: 0 event: 13864335
[cpu0_ROB] entry: 143 instr_id: 17171505 fetch_issued: true fetch_completed: true scheduled: true executed: true completed: true num_reg_dependent: 0 num_mem_ops: 0 event: 13864335
[cpu0_ROB] entry: 144 instr_id: 17171506 fetch_issued: true fetch_completed: true scheduled: true executed: true completed: true num_reg_dependent: 0 num_mem_ops: 0 event: 13864339
[cpu0_ROB] entry: 145 instr_id: 17171507 fetch_issued: true fetch_completed: true scheduled: true executed: true completed: true num_reg_dependent: 0 num_mem_ops: 0 event: 13864339
[cpu0_ROB] entry: 146 instr_id: 17171508 fetch_issued: true fetch_completed: true scheduled: true executed: true completed: true num_reg_dependent: 0 num_mem_ops: 0 event: 13864339
[cpu0_ROB] entry: 147 instr_id: 17171509 fetch_issued: true fetch_completed: true scheduled: true executed: true completed: true num_reg_dependent: 0 num_mem_ops: 0 event: 13864339
[cpu0_ROB] entry: 148 instr_id: 17171510 fetch_issued: true fetch_completed: true scheduled: true executed: true completed: true num_reg_dependent: 0 num_mem_ops: 0 event: 13864340
[cpu0_ROB] entry: 149 instr_id: 17171511 fetch_issued: true fetch_completed: true scheduled: true executed: true completed: true num_reg_dependent: 0 num_mem_ops: 0 event: 13864340
[cpu0_ROB] entry: 150 instr_id: 17171512 fetch_issued: true fetch_completed: true scheduled: true executed: true completed: true num_reg_dependent: 0 num_mem_ops: 0 event: 13864340
[cpu0_ROB] entry: 151 instr_id: 17171513 fetch_issued: true fetch_completed: true scheduled: true executed: true completed: true num_reg_dependent: 0 num_mem_ops: 0 event: 13864340
[cpu0_ROB] entry: 152 instr_id: 17171514 fetch_issued: true fetch_completed: true scheduled: true executed: true completed: true num_reg_dependent: 0 num_mem_ops: 0 event: 13864341
[cpu0_ROB] entry: 153 instr_id: 17171515 fetch_issued: true fetch_completed: true scheduled: true executed: true completed: true num_reg_dependent: 0 num_mem_ops: 0 event: 13864341
[cpu0_ROB] entry: 154 instr_id: 17171516 fetch_issued: true fetch_completed: true scheduled: true executed: true completed: true num_reg_dependent: 0 num_mem_ops: 0 event: 13864341
[cpu0_ROB] entry: 155 instr_id: 17171517 fetch_issued: true fetch_completed: true scheduled: true executed: true completed: true num_reg_dependent: 0 num_mem_ops: 0 event: 13864341
[cpu0_ROB] entry: 156 instr_id: 17171518 fetch_issued: true fetch_completed: true scheduled: true executed: true completed: true num_reg_dependent: 0 num_mem_ops: 0 event: 13864342
[cpu0_ROB] entry: 157 instr_id: 17171519 fetch_issued: true fetch_completed: true scheduled: true executed: true completed: true num_reg_dependent: 0 num_mem_ops: 0 event: 13864342
[cpu0_ROB] entry: 158 instr_id: 17171520 fetch_issued: true fetch_completed: true scheduled: true executed: true completed: true num_reg_dependent: 0 num_mem_ops: 0 event: 13864342
[cpu0_ROB] entry: 159 instr_id: 17171521 fetch_issued: true fetch_completed: true scheduled: true executed: true completed: true num_reg_dependent: 0 num_mem_ops: 0 event: 13864342
[cpu0_ROB] entry: 160 instr_id: 17171522 fetch_issued: true fetch_completed: true scheduled: true executed: true completed: true num_reg_dependent: 0 num_mem_ops: 0 event: 13864343
[cpu0_ROB] entry: 161 instr_id: 17171523 fetch_issued: true fetch_completed: true scheduled: true executed: true completed: true num_reg_dependent: 0 num_mem_ops: 0 event: 13864343
[cpu0_ROB] entry: 162 instr_id: 17171524 fetch_issued: true fetch_completed: true scheduled: true executed: true completed: true num_reg_dependent: 0 num_mem_ops: 0 event: 13864343
[cpu0_ROB] entry: 163 instr_id: 17171525 fetch_issued: true fetch_completed: true scheduled: true executed: true completed: true num_reg_dependent: 0 num_mem_ops: 0 event: 13864343
[cpu0_ROB] entry: 164 instr_id: 17171526 fetch_issued: true fetch_completed: true scheduled: true executed: true completed: true num_reg_dependent: 0 num_mem_ops: 0 event: 13864344
[cpu0_ROB] entry: 165 instr_id: 17171527 fetch_issued: true fetch_completed: true scheduled: true executed: true completed: true num_reg_dependent: 0 num_mem_ops: 0 event: 13864344
[cpu0_ROB] entry: 166 instr_id: 17171528 fetch_issued: true fetch_completed: true scheduled: true executed: true completed: true num_reg_dependent: 0 num_mem_ops: 0 event: 13864344
[cpu0_ROB] entry: 167 instr_id: 17171529 fetch_issued: true fetch_completed: true scheduled: true executed: true completed: true num_reg_dependent: 0 num_mem_ops: 0 event: 13864344
[cpu0_ROB] entry: 168 instr_id: 17171530 fetch_issued: true fetch_completed: true scheduled: true executed: true completed: true num_reg_dependent: 0 num_mem_ops: 0 event: 13864345
[cpu0_ROB] entry: 169 instr_id: 17171531 fetch_issued: true fetch_completed: true scheduled: true executed: true completed: true num_reg_dependent: 0 num_mem_ops: 0 event: 13864345
[cpu0_ROB] entry: 170 instr_id: 17171532 fetch_issued: true fetch_completed: true scheduled: true executed: true completed: true num_reg_dependent: 0 num_mem_ops: 0 event: 13864345
[cpu0_ROB] entry: 171 instr_id: 17171533 fetch_issued: true fetch_completed: true scheduled: true executed: true completed: true num_reg_dependent: 0 num_mem_ops: 0 event: 13864345
[cpu0_ROB] entry: 172 instr_id: 17171534 fetch_issued: true fetch_completed: true scheduled: true executed: true completed: true num_reg_dependent: 0 num_mem_ops: 0 event: 13864346
[cpu0_ROB] entry: 173 instr_id: 17171535 fetch_issued: true fetch_completed: true scheduled: true executed: true completed: true num_reg_dependent: 0 num_mem_ops: 0 event: 13864346
[cpu0_ROB] entry: 174 instr_id: 17171536 fetch_issued: true fetch_completed: true scheduled: true executed: true completed: true num_reg_dependent: 0 num_mem_ops: 0 event: 13864346
[cpu0_ROB] entry: 175 instr_id: 17171537 fetch_issued: true fetch_completed: true scheduled: true executed: true completed: true num_reg_dependent: 0 num_mem_ops: 0 event: 13864346
[cpu0_ROB] entry: 176 instr_id: 17171538 fetch_issued: true fetch_completed: true scheduled: true executed: true completed: true num_reg_dependent: 0 num_mem_ops: 0 event: 13864347
[cpu0_ROB] entry: 177 instr_id: 17171539 fetch_issued: true fetch_completed: true scheduled: true executed: true completed: true num_reg_dependent: 0 num_mem_ops: 0 event: 13864347
[cpu0_ROB] entry: 178 instr_id: 17171540 fetch_issued: true fetch_completed: true scheduled: true executed: true completed: true num_reg_dependent: 0 num_mem_ops: 0 event: 13864347
[cpu0_ROB] entry: 179 instr_id: 17171541 fetch_issued: true fetch_completed: true scheduled: true executed: true completed: true num_reg_dependent: 0 num_mem_ops: 0 event: 13864347
[cpu0_ROB] entry: 180 instr_id: 17171542 fetch_issued: true fetch_completed: true scheduled: true executed: true completed: true num_reg_dependent: 0 num_mem_ops: 0 event: 13864348
[cpu0_ROB] entry: 181 instr_id: 17171543 fetch_issued: true fetch_completed: true scheduled: true executed: true completed: true num_reg_dependent: 0 num_mem_ops: 0 event: 13864348
[cpu0_ROB] entry: 182 instr_id: 17171544 fetch_issued: true fetch_completed: true scheduled: true executed: true completed: true num_reg_dependent: 0 num_mem_ops: 0 event: 13864348
[cpu0_ROB] entry: 183 instr_id: 17171545 fetch_issued: true fetch_completed: true scheduled: true executed: true completed: true num_reg_dependent: 0 num_mem_ops: 0 event: 13864348
[cpu0_ROB] entry: 184 instr_id: 17171546 fetch_issued: true fetch_completed: true scheduled: true executed: true completed: true num_reg_dependent: 0 num_mem_ops: 0 event: 13864349
[cpu0_ROB] entry: 185 instr_id: 17171547 fetch_issued: true fetch_completed: true scheduled: true executed: true completed: true num_reg_dependent: 0 num_mem_ops: 0 event: 13864349
[cpu0_ROB] entry: 186 instr_id: 17171548 fetch_issued: true fetch_completed: true scheduled: true executed: true completed: true num_reg_dependent: 0 num_mem_ops: 0 event: 13864349
[cpu0_ROB] entry: 187 instr_id: 17171549 fetch_issued: true fetch_completed: true scheduled: true executed: true completed: true num_reg_dependent: 0 num_mem_ops: 0 event: 13864349
[cpu0_ROB] entry: 188 instr_id: 17171550 fetch_issued: true fetch_completed: true scheduled: true executed: true completed: true num_reg_dependent: 0 num_mem_ops: 0 event: 13864350
[cpu0_ROB] entry: 189 instr_id: 17171551 fetch_issued: true fetch_completed: true scheduled: true executed: true completed: true num_reg_dependent: 0 num_mem_ops: 0 event: 13864350
[cpu0_ROB] entry: 190 instr_id: 17171552 fetch_issued: true fetch_completed: true scheduled: true executed: true completed: true num_reg_dependent: 0 num_mem_ops: 0 event: 13864350
[cpu0_ROB] entry: 191 instr_id: 17171553 fetch_issued: true fetch_completed: true scheduled: true executed: true completed: true num_reg_dependent: 0 num_mem_ops: 0 event: 13864350
[cpu0_ROB] entry: 192 instr_id: 17171554 fetch_issued: true fetch_completed: true scheduled: true executed: true completed: true num_reg_dependent: 0 num_mem_ops: 0 event: 13864351
[cpu0_ROB] entry: 193 instr_id: 17171555 fetch_issued: true fetch_completed: true scheduled: true executed: true completed: true num_reg_dependent: 0 num_mem_ops: 0 event: 13864351
[cpu0_ROB] entry: 194 instr_id: 17171556 fetch_issued: true fetch_completed: true scheduled: true executed: true completed: true num_reg_dependent: 0 num_mem_ops: 0 event: 13864351
[cpu0_ROB] entry: 195 instr_id: 17171557 fetch_issued: true fetch_completed: true scheduled: true executed: true completed: true num_reg_dependent: 0 num_mem_ops: 0 event: 13864351
[cpu0_ROB] entry: 196 instr_id: 17171558 fetch_issued: true fetch_completed: true scheduled: true executed: true completed: true num_reg_dependent: 0 num_mem_ops: 0 event: 13864352
[cpu0_ROB] entry: 197 instr_id: 17171559 fetch_issued: true fetch_completed: true scheduled: true executed: true completed: true num_reg_dependent: 0 num_mem_ops: 0 event: 13864352
[cpu0_ROB] entry: 198 instr_id: 17171560 fetch_issued: true fetch_completed: true scheduled: true executed: true completed: true num_reg_dependent: 0 num_mem_ops: 0 event: 13864352
[cpu0_ROB] entry: 199 instr_id: 17171561 fetch_issued: true fetch_completed: true scheduled: true executed: true completed: true num_reg_dependent: 0 num_mem_ops: 0 event: 13864352
[cpu0_ROB] entry: 200 instr_id: 17171562 fetch_issued: true fetch_completed: true scheduled: true executed: true completed: true num_reg_dependent: 0 num_mem_ops: 0 event: 13864353
[cpu0_ROB] entry: 201 instr_id: 17171563 fetch_issued: true fetch_completed: true scheduled: true executed: true completed: true num_reg_dependent: 0 num_mem_ops: 0 event: 13864353
[cpu0_ROB] entry: 202 instr_id: 17171564 fetch_issued: true fetch_completed: true scheduled: true executed: true completed: true num_reg_dependent: 0 num_mem_ops: 0 event: 13864353
[cpu0_ROB] entry: 203 instr_id: 17171565 fetch_issued: true fetch_completed: true scheduled: true executed: true completed: true num_reg_dependent: 0 num_mem_ops: 0 event: 13864353
[cpu0_ROB] entry: 204 instr_id: 17171566 fetch_issued: true fetch_completed: true scheduled: true executed: true completed: true num_reg_dependent: 0 num_mem_ops: 0 event: 13864354
[cpu0_ROB] entry: 205 instr_id: 17171567 fetch_issued: true fetch_completed: true scheduled: true executed: true completed: true num_reg_dependent: 0 num_mem_ops: 0 event: 13864354
[cpu0_ROB] entry: 206 instr_id: 17171568 fetch_issued: true fetch_completed: true scheduled: true executed: true completed: true num_reg_dependent: 0 num_mem_ops: 0 event: 13864354
[cpu0_ROB] entry: 207 instr_id: 17171569 fetch_issued: true fetch_completed: true scheduled: true executed: true completed: true num_reg_dependent: 0 num_mem_ops: 0 event: 13864354
[cpu0_ROB] entry: 208 instr_id: 17171570 fetch_issued: true fetch_completed: true scheduled: true executed: true completed: true num_reg_dependent: 0 num_mem_ops: 0 event: 13864355
[cpu0_ROB] entry: 209 instr_id: 17171571 fetch_issued: true fetch_completed: true scheduled: true executed: true completed: true num_reg_dependent: 0 num_mem_ops: 0 event: 13864355
[cpu0_ROB] entry: 210 instr_id: 17171572 fetch_issued: true fetch_completed: true scheduled: true executed: true completed: true num_reg_dependent: 0 num_mem_ops: 0 event: 13864355
[cpu0_ROB] entry: 211 instr_id: 17171573 fetch_issued: true fetch_completed: true scheduled: true executed: true completed: true num_reg_dependent: 0 num_mem_ops: 0 event: 13864355
[cpu0_ROB] entry: 212 instr_id: 17171574 fetch_issued: true fetch_completed: true scheduled: true executed: true completed: true num_reg_dependent: 0 num_mem_ops: 0 event: 13864359
[cpu0_ROB] entry: 213 instr_id: 17171575 fetch_issued: true fetch_completed: true scheduled: true executed: true completed: true num_reg_dependent: 0 num_mem_ops: 0 event: 13864359
[cpu0_ROB] entry: 214 instr_id: 17171576 fetch_issued: true fetch_completed: true scheduled: true executed: true completed: true num_reg_dependent: 0 num_mem_ops: 0 event: 13864359
[cpu0_ROB] entry: 215 instr_id: 17171577 fetch_issued: true fetch_completed: true scheduled: true executed: true completed: true num_reg_dependent: 0 num_mem_ops: 0 event: 13864359
[cpu0_ROB] entry: 216 instr_id: 17171578 fetch_issued: true fetch_completed: true scheduled: true executed: true completed: true num_reg_dependent: 0 num_mem_ops: 0 event: 13864360
[cpu0_ROB] entry: 217 instr_id: 17171579 fetch_issued: true fetch_completed: true scheduled: true executed: true completed: true num_reg_dependent: 0 num_mem_ops: 0 event: 13864360
[cpu0_ROB] entry: 218 instr_id: 17171580 fetch_issued: true fetch_completed: true scheduled: true executed: true completed: true num_reg_dependent: 0 num_mem_ops: 0 event: 13864360
[cpu0_ROB] entry: 219 instr_id: 17171581 fetch_issued: true fetch_completed: true scheduled: true executed: true completed: true num_reg_dependent: 0 num_mem_ops: 0 event: 13864360
[cpu0_ROB] entry: 220 instr_id: 17171582 fetch_issued: true fetch_completed: true scheduled: true executed: true completed: true num_reg_dependent: 0 num_mem_ops: 0 event: 13864361
[cpu0_ROB] entry: 221 instr_id: 17171583 fetch_issued: true fetch_completed: true scheduled: true executed: true completed: true num_reg_dependent: 0 num_mem_ops: 0 event: 13864361
[cpu0_ROB] entry: 222 instr_id: 17171584 fetch_issued: true fetch_completed: true scheduled: true executed: true completed: true num_reg_dependent: 0 num_mem_ops: 0 event: 13864361
[cpu0_ROB] entry: 223 instr_id: 17171585 fetch_issued: true fetch_completed: true scheduled: true executed: true completed: true num_reg_dependent: 0 num_mem_ops: 0 event: 13864361
[cpu0_ROB] entry: 224 instr_id: 17171586 fetch_issued: true fetch_completed: true scheduled: true executed: true completed: true num_reg_dependent: 0 num_mem_ops: 0 event: 13864362
[cpu0_ROB] entry: 225 instr_id: 17171587 fetch_issued: true fetch_completed: true scheduled: true executed: true completed: true num_reg_dependent: 0 num_mem_ops: 0 event: 13864362
[cpu0_ROB] entry: 226 instr_id: 17171588 fetch_issued: true fetch_completed: true scheduled: true executed: true completed: true num_reg_dependent: 0 num_mem_ops: 0 event: 13864362
[cpu0_ROB] entry: 227 instr_id: 17171589 fetch_issued: true fetch_completed: true scheduled: true executed: true completed: true num_reg_dependent: 0 num_mem_ops: 0 event: 13864362
[cpu0_ROB] entry: 228 instr_id: 17171590 fetch_issued: true fetch_completed: true scheduled: true executed: true completed: true num_reg_dependent: 0 num_mem_ops: 0 event: 13864363
[cpu0_ROB] entry: 229 instr_id: 17171591 fetch_issued: true fetch_completed: true scheduled: true executed: true completed: true num_reg_dependent: 0 num_mem_ops: 0 event: 13864363
[cpu0_ROB] entry: 230 instr_id: 17171592 fetch_issued: true fetch_completed: true scheduled: true executed: true completed: false num_reg_dependent: 0 num_mem_ops: 1 event: 13864363
[cpu0_ROB] entry: 231 instr_id: 17171593 fetch_issued: true fetch_completed: true scheduled: true executed: true completed: true num_reg_dependent: 0 num_mem_ops: 0 event: 13864363
[cpu0_ROB] entry: 232 instr_id: 17171594 fetch_issued: true fetch_completed: true scheduled: true executed: true completed: true num_reg_dependent: 0 num_mem_ops: 0 event: 13864364
[cpu0_ROB] entry: 233 instr_id: 17171595 fetch_issued: true fetch_completed: true scheduled: true executed: true completed: true num_reg_dependent: 0 num_mem_ops: 0 event: 13864364
[cpu0_ROB] entry: 234 instr_id: 17171596 fetch_issued: true fetch_completed: true scheduled: true executed: true completed: false num_reg_dependent: 0 num_mem_ops: 1 event: 13864364
[cpu0_ROB] entry: 235 instr_id: 17171597 fetch_issued: true fetch_completed: true scheduled: true executed: true completed: true num_reg_dependent: 0 num_mem_ops: 0 event: 13864364
[cpu0_ROB] entry: 236 instr_id: 17171598 fetch_issued: true fetch_completed: true scheduled: true executed: true completed: true num_reg_dependent: 0 num_mem_ops: 0 event: 13864365
[cpu0_ROB] entry: 237 instr_id: 17171599 fetch_issued: true fetch_completed: true scheduled: true executed: true completed: false num_reg_dependent: 0 num_mem_ops: 1 event: 13864365
[cpu0_ROB] entry: 238 instr_id: 17171600 fetch_issued: true fetch_completed: true scheduled: true executed: true completed: true num_reg_dependent: 0 num_mem_ops: 0 event: 13864365
[cpu0_ROB] entry: 239 instr_id: 17171601 fetch_issued: true fetch_completed: true scheduled: true executed: true completed: true num_reg_dependent: 0 num_mem_ops: 0 event: 13864365
[cpu0_ROB] entry: 240 instr_id: 17171602 fetch_issued: true fetch_completed: true scheduled: true executed: true completed: true num_reg_dependent: 0 num_mem_ops: 0 event: 13864366
[cpu0_ROB] entry: 241 instr_id: 17171603 fetch_issued: true fetch_completed: true scheduled: true executed: true completed: true num_reg_dependent: 0 num_mem_ops: 0 event: 13864366
[cpu0_ROB] entry: 242 instr_id: 17171604 fetch_issued: true fetch_completed: true scheduled: true executed: true completed: true num_reg_dependent: 0 num_mem_ops: 0 event: 13864366
[cpu0_ROB] entry: 243 instr_id: 17171605 fetch_issued: true fetch_completed: true scheduled: true executed: true completed: true num_reg_dependent: 0 num_mem_ops: 0 event: 13864366
[cpu0_ROB] entry: 244 instr_id: 17171606 fetch_issued: true fetch_completed: true scheduled: true executed: true completed: true num_reg_dependent: 0 num_mem_ops: 0 event: 13864367
[cpu0_ROB] entry: 245 instr_id: 17171607 fetch_issued: true fetch_completed: true scheduled: true executed: true completed: true num_reg_dependent: 0 num_mem_ops: 0 event: 13864367
[cpu0_ROB] entry: 246 instr_id: 17171608 fetch_issued: true fetch_completed: true scheduled: true executed: true completed: true num_reg_dependent: 0 num_mem_ops: 0 event: 13864367
[cpu0_ROB] entry: 247 instr_id: 17171609 fetch_issued: true fetch_completed: true scheduled: true executed: true completed: false num_reg_dependent: 0 num_mem_ops: 1 event: 13864367
[cpu0_ROB] entry: 248 instr_id: 17171610 fetch_issued: true fetch_completed: true scheduled: true executed: true completed: true num_reg_dependent: 0 num_mem_ops: 0 event: 13864368
[cpu0_ROB] entry: 249 instr_id: 17171611 fetch_issued: true fetch_completed: true scheduled: true executed: true completed: true num_reg_dependent: 0 num_mem_ops: 0 event: 13864368
[cpu0_ROB] entry: 250 instr_id: 17171612 fetch_issued: true fetch_completed: true scheduled: true executed: true completed: true num_reg_dependent: 0 num_mem_ops: 0 event: 13864368
[cpu0_ROB] entry: 251 instr_id: 17171613 fetch_issued: true fetch_completed: true scheduled: true executed: true completed: true num_reg_dependent: 0 num_mem_ops: 0 event: 13864368
[cpu0_ROB] entry: 252 instr_id: 17171614 fetch_issued: true fetch_completed: true scheduled: true executed: true completed: true num_reg_dependent: 0 num_mem_ops: 0 event: 13864369
[cpu0_ROB] entry: 253 instr_id: 17171615 fetch_issued: true fetch_completed: true scheduled: true executed: true completed: true num_reg_dependent: 0 num_mem_ops: 0 event: 13864369
[cpu0_ROB] entry: 254 instr_id: 17171616 fetch_issued: true fetch_completed: true scheduled: true executed: true completed: true num_reg_dependent: 0 num_mem_ops: 0 event: 13864369
[cpu0_ROB] entry: 255 instr_id: 17171617 fetch_issued: true fetch_completed: true scheduled: true executed: true completed: true num_reg_dependent: 0 num_mem_ops: 0 event: 13864369
[cpu0_ROB] entry: 256 instr_id: 17171618 fetch_issued: true fetch_completed: true scheduled: true executed: true completed: true num_reg_dependent: 0 num_mem_ops: 0 event: 13864370
[cpu0_ROB] entry: 257 instr_id: 17171619 fetch_issued: true fetch_completed: true scheduled: true executed: true completed: true num_reg_dependent: 0 num_mem_ops: 0 event: 13864370
[cpu0_ROB] entry: 258 instr_id: 17171620 fetch_issued: true fetch_completed: true scheduled: true executed: true completed: true num_reg_dependent: 0 num_mem_ops: 0 event: 13864370
[cpu0_ROB] entry: 259 instr_id: 17171621 fetch_issued: true fetch_completed: true scheduled: true executed: true completed: true num_reg_dependent: 0 num_mem_ops: 0 event: 13864370
[cpu0_ROB] entry: 260 instr_id: 17171622 fetch_issued: true fetch_completed: true scheduled: true executed: true completed: true num_reg_dependent: 0 num_mem_ops: 0 event: 13864371
[cpu0_ROB] entry: 261 instr_id: 17171623 fetch_issued: true fetch_completed: true scheduled: true executed: true completed: true num_reg_dependent: 0 num_mem_ops: 0 event: 13864371
[cpu0_ROB] entry: 262 instr_id: 17171624 fetch_issued: true fetch_completed: true scheduled: true executed: true completed: true num_reg_dependent: 0 num_mem_ops: 0 event: 13864371
[cpu0_ROB] entry: 263 instr_id: 17171625 fetch_issued: true fetch_completed: true scheduled: true executed: true completed: true num_reg_dependent: 0 num_mem_ops: 0 event: 13864371
[cpu0_ROB] entry: 264 instr_id: 17171626 fetch_issued: true fetch_completed: true scheduled: true executed: true completed: true num_reg_dependent: 0 num_mem_ops: 0 event: 13864372
[cpu0_ROB] entry: 265 instr_id: 17171627 fetch_issued: true fetch_completed: true scheduled: true executed: true completed: true num_reg_dependent: 0 num_mem_ops: 0 event: 13864372
[cpu0_ROB] entry: 266 instr_id: 17171628 fetch_issued: true fetch_completed: true scheduled: true executed: true completed: true num_reg_dependent: 0 num_mem_ops: 0 event: 13864372
[cpu0_ROB] entry: 267 instr_id: 17171629 fetch_issued: true fetch_completed: true scheduled: true executed: true completed: true num_reg_dependent: 0 num_mem_ops: 0 event: 13864372
[cpu0_ROB] entry: 268 instr_id: 17171630 fetch_issued: true fetch_completed: true scheduled: true executed: true completed: true num_reg_dependent: 0 num_mem_ops: 0 event: 13864373
[cpu0_ROB] entry: 269 instr_id: 17171631 fetch_issued: true fetch_completed: true scheduled: true executed: true completed: true num_reg_dependent: 0 num_mem_ops: 0 event: 13864373
[cpu0_ROB] entry: 270 instr_id: 17171632 fetch_issued: true fetch_completed: true scheduled: true executed: true completed: true num_reg_dependent: 0 num_mem_ops: 0 event: 13864373
[cpu0_ROB] entry: 271 instr_id: 17171633 fetch_issued: true fetch_completed: true scheduled: true executed: true completed: true num_reg_dependent: 0 num_mem_ops: 0 event: 13864373
[cpu0_ROB] entry: 272 instr_id: 17171634 fetch_issued: true fetch_completed: true scheduled: true executed: true completed: true num_reg_dependent: 0 num_mem_ops: 0 event: 13864374
[cpu0_ROB] entry: 273 instr_id: 17171635 fetch_issued: true fetch_completed: true scheduled: true executed: true completed: true num_reg_dependent: 0 num_mem_ops: 0 event: 13864374
[cpu0_ROB] entry: 274 instr_id: 17171636 fetch_issued: true fetch_completed: true scheduled: true executed: true completed: true num_reg_dependent: 0 num_mem_ops: 0 event: 13864374
[cpu0_ROB] entry: 275 instr_id: 17171637 fetch_issued: true fetch_completed: true scheduled: true executed: true completed: true num_reg_dependent: 0 num_mem_ops: 0 event: 13864374
[cpu0_ROB] entry: 276 instr_id: 17171638 fetch_issued: true fetch_completed: true scheduled: true executed: true completed: true num_reg_dependent: 0 num_mem_ops: 0 event: 13864375
[cpu0_ROB] entry: 277 instr_id: 17171639 fetch_issued: true fetch_completed: true scheduled: true executed: true completed: true num_reg_dependent: 0 num_mem_ops: 0 event: 13864375
[cpu0_ROB] entry: 278 instr_id: 17171640 fetch_issued: true fetch_completed: true scheduled: true executed: true completed: true num_reg_dependent: 0 num_mem_ops: 0 event: 13864375
[cpu0_ROB] entry: 279 instr_id: 17171641 fetch_issued: true fetch_completed: true scheduled: true executed: true completed: true num_reg_dependent: 0 num_mem_ops: 0 event: 13864375
[cpu0_ROB] entry: 280 instr_id: 17171642 fetch_issued: true fetch_completed: true scheduled: true executed: true completed: true num_reg_dependent: 0 num_mem_ops: 0 event: 13864376
[cpu0_ROB] entry: 281 instr_id: 17171643 fetch_issued: true fetch_completed: true scheduled: true executed: true completed: true num_reg_dependent: 0 num_mem_ops: 0 event: 13864376
[cpu0_ROB] entry: 282 instr_id: 17171644 fetch_issued: true fetch_completed: true scheduled: true executed: true completed: true num_reg_dependent: 0 num_mem_ops: 0 event: 13864376
[cpu0_ROB] entry: 283 instr_id: 17171645 fetch_issued: true fetch_completed: true scheduled: true executed: true completed: true num_reg_dependent: 0 num_mem_ops: 0 event: 13864376
[cpu0_ROB] entry: 284 instr_id: 17171646 fetch_issued: true fetch_completed: true scheduled: true executed: true completed: true num_reg_dependent: 0 num_mem_ops: 0 event: 13864377
[cpu0_ROB] entry: 285 instr_id: 17171647 fetch_issued: true fetch_completed: true scheduled: true executed: true completed: true num_reg_dependent: 0 num_mem_ops: 0 event: 13864377
[cpu0_ROB] entry: 286 instr_id: 17171648 fetch_issued: true fetch_completed: true scheduled: true executed: true completed: true num_reg_dependent: 0 num_mem_ops: 0 event: 13864377
[cpu0_ROB] entry: 287 instr_id: 17171649 fetch_issued: true fetch_completed: true scheduled: true executed: true completed: true num_reg_dependent: 0 num_mem_ops: 0 event: 13864377
[cpu0_ROB] entry: 288 instr_id: 17171650 fetch_issued: true fetch_completed: true scheduled: true executed: true completed: true num_reg_dependent: 0 num_mem_ops: 0 event: 13864378
[cpu0_ROB] entry: 289 instr_id: 17171651 fetch_issued: true fetch_completed: true scheduled: true executed: true completed: true num_reg_dependent: 0 num_mem_ops: 0 event: 13864378
[cpu0_ROB] entry: 290 instr_id: 17171652 fetch_issued: true fetch_completed: true scheduled: true executed: true completed: true num_reg_dependent: 0 num_mem_ops: 0 event: 13864378
[cpu0_ROB] entry: 291 instr_id: 17171653 fetch_issued: true fetch_completed: true scheduled: true executed: true completed: true num_reg_dependent: 0 num_mem_ops: 0 event: 13864378
[cpu0_ROB] entry: 292 instr_id: 17171654 fetch_issued: true fetch_completed: true scheduled: true executed: true completed: true num_reg_dependent: 0 num_mem_ops: 0 event: 13864379
[cpu0_ROB] entry: 293 instr_id: 17171655 fetch_issued: true fetch_completed: true scheduled: true executed: true completed: true num_reg_dependent: 0 num_mem_ops: 0 event: 13864379
[cpu0_ROB] entry: 294 instr_id: 17171656 fetch_issued: true fetch_completed: true scheduled: true executed: true completed: true num_reg_dependent: 0 num_mem_ops: 0 event: 13864379
[cpu0_ROB] entry: 295 instr_id: 17171657 fetch_issued: true fetch_completed: true scheduled: true executed: true completed: true num_reg_dependent: 0 num_mem_ops: 0 event: 13864379
[cpu0_ROB] entry: 296 instr_id: 17171658 fetch_issued: true fetch_completed: true scheduled: true executed: true completed: true num_reg_dependent: 0 num_mem_ops: 0 event: 13864380
[cpu0_ROB] entry: 297 instr_id: 17171659 fetch_issued: true fetch_completed: true scheduled: true executed: true completed: true num_reg_dependent: 0 num_mem_ops: 0 event: 13864380
[cpu0_ROB] entry: 298 instr_id: 17171660 fetch_issued: true fetch_completed: true scheduled: true executed: true completed: true num_reg_dependent: 0 num_mem_ops: 0 event: 13864380
[cpu0_ROB] entry: 299 instr_id: 17171661 fetch_issued: true fetch_completed: true scheduled: true executed: true completed: true num_reg_dependent: 0 num_mem_ops: 0 event: 13864380
[cpu0_ROB] entry: 300 instr_id: 17171662 fetch_issued: true fetch_completed: true scheduled: true executed: true completed: true num_reg_dependent: 0 num_mem_ops: 0 event: 13864381
[cpu0_ROB] entry: 301 instr_id: 17171663 fetch_issued: true fetch_completed: true scheduled: true executed: true completed: true num_reg_dependent: 0 num_mem_ops: 0 event: 13864381
[cpu0_ROB] entry: 302 instr_id: 17171664 fetch_issued: true fetch_completed: true scheduled: true executed: true completed: true num_reg_dependent: 0 num_mem_ops: 0 event: 13864381
[cpu0_ROB] entry: 303 instr_id: 17171665 fetch_issued: true fetch_completed: true scheduled: true executed: true completed: true num_reg_dependent: 0 num_mem_ops: 0 event: 13864381
[cpu0_ROB] entry: 304 instr_id: 17171666 fetch_issued: true fetch_completed: true scheduled: true executed: true completed: true num_reg_dependent: 0 num_mem_ops: 0 event: 13864382
[cpu0_ROB] entry: 305 instr_id: 17171667 fetch_issued: true fetch_completed: true scheduled: true executed: true completed: true num_reg_dependent: 0 num_mem_ops: 0 event: 13864382
[cpu0_ROB] entry: 306 instr_id: 17171668 fetch_issued: true fetch_completed: true scheduled: true executed: true completed: true num_reg_dependent: 0 num_mem_ops: 0 event: 13864382
[cpu0_ROB] entry: 307 instr_id: 17171669 fetch_issued: true fetch_completed: true scheduled: true executed: true completed: false num_reg_dependent: 0 num_mem_ops: 1 event: 13864382
[cpu0_ROB] entry: 308 instr_id: 17171670 fetch_issued: true fetch_completed: true scheduled: true executed: true completed: true num_reg_dependent: 0 num_mem_ops: 0 event: 13864383
[cpu0_ROB] entry: 309 instr_id: 17171671 fetch_issued: true fetch_completed: true scheduled: true executed: true completed: true num_reg_dependent: 0 num_mem_ops: 0 event: 13864383
[cpu0_ROB] entry: 310 instr_id: 17171672 fetch_issued: true fetch_completed: true scheduled: true executed: true completed: true num_reg_dependent: 0 num_mem_ops: 0 event: 13864383
[cpu0_ROB] entry: 311 instr_id: 17171673 fetch_issued: true fetch_completed: true scheduled: true executed: true completed: false num_reg_dependent: 0 num_mem_ops: 1 event: 13864383
[cpu0_ROB] entry: 312 instr_id: 17171674 fetch_issued: true fetch_completed: true scheduled: true executed: true completed: true num_reg_dependent: 0 num_mem_ops: 0 event: 13864384
[cpu0_ROB] entry: 313 instr_id: 17171675 fetch_issued: true fetch_completed: true scheduled: true executed: true completed: true num_reg_dependent: 0 num_mem_ops: 0 event: 13864384
[cpu0_ROB] entry: 314 instr_id: 17171676 fetch_issued: true fetch_completed: true scheduled: true executed: true completed: false num_reg_dependent: 0 num_mem_ops: 1 event: 13864384
[cpu0_ROB] entry: 315 instr_id: 17171677 fetch_issued: true fetch_completed: true scheduled: true executed: true completed: true num_reg_dependent: 0 num_mem_ops: 0 event: 13864384
[cpu0_ROB] entry: 316 instr_id: 17171678 fetch_issued: true fetch_completed: true scheduled: true executed: true completed: true num_reg_dependent: 0 num_mem_ops: 0 event: 13864385
[cpu0_ROB] entry: 317 instr_id: 17171679 fetch_issued: true fetch_completed: true scheduled: true executed: true completed: true num_reg_dependent: 0 num_mem_ops: 0 event: 13864385
[cpu0_ROB] entry: 318 instr_id: 17171680 fetch_issued: true fetch_completed: true scheduled: true executed: true completed: true num_reg_dependent: 0 num_mem_ops: 0 event: 13864385
[cpu0_ROB] entry: 319 instr_id: 17171681 fetch_issued: true fetch_completed: true scheduled: true executed: true completed: true num_reg_dependent: 0 num_mem_ops: 0 event: 13864385
[cpu0_ROB] entry: 320 instr_id: 17171682 fetch_issued: true fetch_completed: true scheduled: true executed: true completed: true num_reg_dependent: 0 num_mem_ops: 0 event: 13864386
[cpu0_ROB] entry: 321 instr_id: 17171683 fetch_issued: true fetch_completed: true scheduled: true executed: true completed: true num_reg_dependent: 0 num_mem_ops: 0 event: 13864386
[cpu0_ROB] entry: 322 instr_id: 17171684 fetch_issued: true fetch_completed: true scheduled: true executed: true completed: true num_reg_dependent: 0 num_mem_ops: 0 event: 13864386
[cpu0_ROB] entry: 323 instr_id: 17171685 fetch_issued: true fetch_completed: true scheduled: true executed: true completed: true num_reg_dependent: 0 num_mem_ops: 0 event: 13864386
[cpu0_ROB] entry: 324 instr_id: 17171686 fetch_issued: true fetch_completed: true scheduled: true executed: true completed: false num_reg_dependent: 0 num_mem_ops: 1 event: 13864387
[cpu0_ROB] entry: 325 instr_id: 17171687 fetch_issued: true fetch_completed: true scheduled: true executed: true completed: true num_reg_dependent: 0 num_mem_ops: 0 event: 13864387
[cpu0_ROB] entry: 326 instr_id: 17171688 fetch_issued: true fetch_completed: true scheduled: true executed: true completed: true num_reg_dependent: 0 num_mem_ops: 0 event: 13864387
[cpu0_ROB] entry: 327 instr_id: 17171689 fetch_issued: true fetch_completed: true scheduled: true executed: true completed: true num_reg_dependent: 0 num_mem_ops: 0 event: 13864387
[cpu0_ROB] entry: 328 instr_id: 17171690 fetch_issued: true fetch_completed: true scheduled: true executed: true completed: true num_reg_dependent: 0 num_mem_ops: 0 event: 13864388
[cpu0_ROB] entry: 329 instr_id: 17171691 fetch_issued: true fetch_completed: true scheduled: true executed: true completed: true num_reg_dependent: 0 num_mem_ops: 0 event: 13864388
[cpu0_ROB] entry: 330 instr_id: 17171692 fetch_issued: true fetch_completed: true scheduled: true executed: true completed: true num_reg_dependent: 0 num_mem_ops: 0 event: 13864388
[cpu0_ROB] entry: 331 instr_id: 17171693 fetch_issued: true fetch_completed: true scheduled: true executed: true completed: true num_reg_dependent: 0 num_mem_ops: 0 event: 13864388
[cpu0_ROB] entry: 332 instr_id: 17171694 fetch_issued: true fetch_completed: true scheduled: true executed: true completed: true num_reg_dependent: 0 num_mem_ops: 0 event: 13864389
[cpu0_ROB] entry: 333 instr_id: 17171695 fetch_issued: true fetch_completed: true scheduled: true executed: true completed: true num_reg_dependent: 0 num_mem_ops: 0 event: 13864389
[cpu0_ROB] entry: 334 instr_id: 17171696 fetch_issued: true fetch_completed: true scheduled: true executed: true completed: true num_reg_dependent: 0 num_mem_ops: 0 event: 13864389
[cpu0_ROB] entry: 335 instr_id: 17171697 fetch_issued: true fetch_completed: true scheduled: true executed: true completed: true num_reg_dependent: 0 num_mem_ops: 0 event: 13864389
[cpu0_ROB] entry: 336 instr_id: 17171698 fetch_issued: true fetch_completed: true scheduled: true executed: true completed: true num_reg_dependent: 0 num_mem_ops: 0 event: 13864390
[...]
Phys reg:  22	 Arch reg:   0	 Producer: 0	 Valid: false	 Busy: false
Phys reg:  23	 Arch reg:   0	 Producer: 0	 Valid: false	 Busy: false
Phys reg:  24	 Arch reg:   0	 Producer: 0	 Valid: false	 Busy: false
Phys reg:  25	 Arch reg:   0	 Producer: 0	 Valid: false	 Busy: false
Phys reg:  26	 Arch reg:   0	 Producer: 0	 Valid: false	 Busy: false
Phys reg:  27	 Arch reg:   0	 Producer: 0	 Valid: false	 Busy: false
Phys reg:  28	 Arch reg:   0	 Producer: 0	 Valid: false	 Busy: false
Phys reg:  29	 Arch reg:   0	 Producer: 0	 Valid: false	 Busy: false
Phys reg:  30	 Arch reg:   0	 Producer: 0	 Valid: false	 Busy: false
Phys reg:  31	 Arch reg:   0	 Producer: 0	 Valid: false	 Busy: false
Phys reg:  32	 Arch reg:   0	 Producer: 0	 Valid: false	 Busy: false
Phys reg:  33	 Arch reg:   0	 Producer: 0	 Valid: false	 Busy: false
Phys reg:  34	 Arch reg:   0	 Producer: 0	 Valid: false	 Busy: false
Phys reg:  35	 Arch reg:   0	 Producer: 0	 Valid: false	 Busy: false
Phys reg:  36	 Arch reg:   0	 Producer: 0	 Valid: false	 Busy: false
Phys reg:  37	 Arch reg:   0	 Producer: 0	 Valid: false	 Busy: false
Phys reg:  38	 Arch reg:   0	 Producer: 0	 Valid: false	 Busy: false
Phys reg:  39	 Arch reg:   0	 Producer: 0	 Valid: false	 Busy: false
Phys reg:  40	 Arch reg:   0	 Producer: 0	 Valid: false	 Busy: false
Phys reg:  41	 Arch reg:   0	 Producer: 0	 Valid: false	 Busy: false
Phys reg:  42	 Arch reg:   0	 Producer: 0	 Valid: false	 Busy: false
Phys reg:  43	 Arch reg:   0	 Producer: 0	 Valid: false	 Busy: false
Phys reg:  44	 Arch reg:   0	 Producer: 0	 Valid: false	 Busy: false
Phys reg:  45	 Arch reg:   0	 Producer: 0	 Valid: false	 Busy: false
Phys reg:  46	 Arch reg:   0	 Producer: 0	 Valid: false	 Busy: false
Phys reg:  47	 Arch reg:   0	 Producer: 0	 Valid: false	 Busy: false
Phys reg:  48	 Arch reg:   0	 Producer: 0	 Valid: false	 Busy: false
Phys reg:  49	 Arch reg:   0	 Producer: 0	 Valid: false	 Busy: false
Phys reg:  50	 Arch reg:   0	 Producer: 0	 Valid: false	 Busy: false
Phys reg:  51	 Arch reg:   0	 Producer: 0	 Valid: false	 Busy: false
Phys reg:  52	 Arch reg:   0	 Producer: 0	 Valid: false	 Busy: false
Phys reg:  53	 Arch reg:   0	 Producer: 0	 Valid: false	 Busy: false
Phys reg:  54	 Arch reg:   0	 Producer: 0	 Valid: false	 Busy: false
Phys reg:  55	 Arch reg:   0	 Producer: 0	 Valid: false	 Busy: false
Phys reg:  56	 Arch reg:   0	 Producer: 0	 Valid: false	 Busy: false
Phys reg:  57	 Arch reg:   0	 Producer: 0	 Valid: false	 Busy: false
Phys reg:  58	 Arch reg:   0	 Producer: 0	 Valid: false	 Busy: false
Phys reg:  59	 Arch reg:   0	 Producer: 0	 Valid: false	 Busy: false
Phys reg:  60	 Arch reg:   0	 Producer: 0	 Valid: false	 Busy: false
Phys reg:  61	 Arch reg:   0	 Producer: 0	 Valid: false	 Busy: false
Phys reg:  62	 Arch reg:   0	 Producer: 0	 Valid: false	 Busy: false
Phys reg:  63	 Arch reg:   0	 Producer: 0	 Valid: false	 Busy: false
Phys reg:  64	 Arch reg:   0	 Producer: 0	 Valid: false	 Busy: false
Phys reg:  65	 Arch reg:   0	 Producer: 0	 Valid: false	 Busy: false
Phys reg:  66	 Arch reg:   0	 Producer: 0	 Valid: false	 Busy: false
Phys reg:  67	 Arch reg:   0	 Producer: 0	 Valid: false	 Busy: false
Phys reg:  68	 Arch reg:   0	 Producer: 0	 Valid: false	 Busy: false
Phys reg:  69	 Arch reg:   0	 Producer: 0	 Valid: false	 Busy: false
Phys reg:  70	 Arch reg:   0	 Producer: 0	 Valid: false	 Busy: false
Phys reg:  71	 Arch reg:   0	 Producer: 0	 Valid: false	 Busy: false
Phys reg:  72	 Arch reg:   0	 Producer: 0	 Valid: false	 Busy: false
Phys reg:  73	 Arch reg:   0	 Producer: 0	 Valid: false	 Busy: false
Phys reg:  74	 Arch reg:   0	 Producer: 0	 Valid: false	 Busy: false
Phys reg:  75	 Arch reg:   0	 Producer: 0	 Valid: false	 Busy: false
Phys reg:  76	 Arch reg:   0	 Producer: 0	 Valid: false	 Busy: false
Phys reg:  77	 Arch reg:   0	 Producer: 0	 Valid: false	 Busy: false
Phys reg:  78	 Arch reg:   0	 Producer: 0	 Valid: false	 Busy: false
Phys reg:  79	 Arch reg:   0	 Producer: 0	 Valid: false	 Busy: false
Phys reg:  80	 Arch reg:   0	 Producer: 0	 Valid: false	 Busy: false
Phys reg:  81	 Arch reg:   0	 Producer: 0	 Valid: false	 Busy: false
Phys reg:  82	 Arch reg:   0	 Producer: 0	 Valid: false	 Busy: false
Phys reg:  83	 Arch reg:   0	 Producer: 0	 Valid: false	 Busy: false
Phys reg:  84	 Arch reg:   0	 Producer: 0	 Valid: false	 Busy: false
Phys reg:  85	 Arch reg:   0	 Producer: 0	 Valid: false	 Busy: false
Phys reg:  86	 Arch reg:   0	 Producer: 0	 Valid: false	 Busy: false
Phys reg:  87	 Arch reg:   0	 Producer: 0	 Valid: false	 Busy: false
Phys reg:  88	 Arch reg:   0	 Producer: 0	 Valid: false	 Busy: false
Phys reg:  89	 Arch reg:   0	 Producer: 0	 Valid: false	 Busy: false
Phys reg:  90	 Arch reg:   0	 Producer: 0	 Valid: false	 Busy: false
Phys reg:  91	 Arch reg:   0	 Producer: 0	 Valid: false	 Busy: false
Phys reg:  92	 Arch reg:   0	 Producer: 0	 Valid: false	 Busy: false
Phys reg:  93	 Arch reg:   0	 Producer: 0	 Valid: false	 Busy: false
Phys reg:  94	 Arch reg:   0	 Producer: 0	 Valid: false	 Busy: false
Phys reg:  95	 Arch reg:   0	 Producer: 0	 Valid: false	 Busy: false
Phys reg:  96	 Arch reg:   0	 Producer: 0	 Valid: false	 Busy: false
Phys reg:  97	 Arch reg:   0	 Producer: 0	 Valid: false	 Busy: false
Phys reg:  98	 Arch reg:   0	 Producer: 0	 Valid: false	 Busy: false
Phys reg:  99	 Arch reg:   0	 Producer: 0	 Valid: false	 Busy: false
Phys reg: 100	 Arch reg:   0	 Producer: 0	 Valid: false	 Busy: false
Phys reg: 101	 Arch reg:   0	 Producer: 0	 Valid: false	 Busy: false
Phys reg: 102	 Arch reg:   0	 Producer: 0	 Valid: false	 Busy: false
Phys reg: 103	 Arch reg:   0	 Producer: 0	 Valid: false	 Busy: false
Phys reg: 104	 Arch reg:   0	 Producer: 0	 Valid: false	 Busy: false
Phys reg: 105	 Arch reg:   0	 Producer: 0	 Valid: false	 Busy: false
Phys reg: 106	 Arch reg:   0	 Producer: 0	 Valid: false	 Busy: false
Phys reg: 107	 Arch reg:   0	 Producer: 0	 Valid: false	 Busy: false
Phys reg: 108	 Arch reg:   0	 Producer: 0	 Valid: false	 Busy: false
Phys reg: 109	 Arch reg:   0	 Producer: 0	 Valid: false	 Busy: false
Phys reg: 110	 Arch reg:   0	 Producer: 0	 Valid: false	 Busy: false
Phys reg: 111	 Arch reg:   0	 Producer: 0	 Valid: false	 Busy: false
Phys reg: 112	 Arch reg:   0	 Producer: 0	 Valid: false	 Busy: false
Phys reg: 113	 Arch reg:   0	 Producer: 0	 Valid: false	 Busy: false
Phys reg: 114	 Arch reg:   0	 Producer: 0	 Valid: false	 Busy: false
Phys reg: 115	 Arch reg:   0	 Producer: 0	 Valid: false	 Busy: false
Phys reg: 116	 Arch reg:   0	 Producer: 0	 Valid: false	 Busy: false
Phys reg: 117	 Arch reg:   0	 Producer: 0	 Valid: false	 Busy: false
Phys reg: 118	 Arch reg:   0	 Producer: 0	 Valid: false	 Busy: false
Phys reg: 119	 Arch reg:   0	 Producer: 0	 Valid: false	 Busy: false
Phys reg: 120	 Arch reg:   0	 Producer: 0	 Valid: false	 Busy: false
Phys reg: 121	 Arch reg:   0	 Producer: 0	 Valid: false	 Busy: false
Phys reg: 122	 Arch reg:   0	 Producer: 0	 Valid: false	 Busy: false
Phys reg: 123	 Arch reg:   0	 Producer: 0	 Valid: false	 Busy: false
Phys reg: 124	 Arch reg:   0	 Producer: 0	 Valid: false	 Busy: false
Phys reg: 125	 Arch reg:   0	 Producer: 0	 Valid: false	 Busy: false
Phys reg: 126	 Arch reg:   0	 Producer: 0	 Valid: false	 Busy: false
Phys reg: 127	 Arch reg:   0	 Producer: 0	 Valid: false	 Busy: false

[cpu0_LQ] entry:   0 empty
[cpu0_LQ] entry:   1 instr_id: 17171370 address: 0x3c33cb0 fetch_issued: true event_cycle: 13864300 waits on -
[cpu0_LQ] entry:   2 instr_id: 17171609 address: 0x3c37180 fetch_issued: true event_cycle: 13864367 waits on -
[cpu0_LQ] entry:   3 empty
[cpu0_LQ] entry:   4 empty
[cpu0_LQ] entry:   5 instr_id: 17171371 address: 0x3c33c80 fetch_issued: true event_cycle: 13864300 waits on -
[cpu0_LQ] entry:   6 empty
[cpu0_LQ] entry:   7 empty
[cpu0_LQ] entry:   8 empty
[cpu0_LQ] entry:   9 empty
[cpu0_LQ] entry:  10 empty
[cpu0_LQ] entry:  11 empty
[cpu0_LQ] entry:  12 instr_id: 17171373 address: 0x3c33c90 fetch_issued: true event_cycle: 13864301 waits on -
[cpu0_LQ] entry:  13 empty
[cpu0_LQ] entry:  14 empty
[cpu0_LQ] entry:  15 empty
[cpu0_LQ] entry:  16 empty
[cpu0_LQ] entry:  17 empty
[cpu0_LQ] entry:  18 empty
[cpu0_LQ] entry:  19 empty
[cpu0_LQ] entry:  20 instr_id: 17171592 address: 0x3c371a0 fetch_issued: true event_cycle: 13864363 waits on -
[cpu0_LQ] entry:  21 empty
[cpu0_LQ] entry:  22 empty
[cpu0_LQ] entry:  23 instr_id: 17171676 address: 0x3c371b0 fetch_issued: true event_cycle: 13864384 waits on -
[cpu0_LQ] entry:  24 instr_id: 17171362 address: 0x3c33ca0 fetch_issued: true event_cycle: 13864298 waits on -
[cpu0_LQ] entry:  25 instr_id: 17171374 address: 0x3c33c60 fetch_issued: true event_cycle: 13864301 waits on -
[cpu0_LQ] entry:  26 empty
[cpu0_LQ] entry:  27 empty
[cpu0_LQ] entry:  28 empty
[cpu0_LQ] entry:  29 empty
[cpu0_LQ] entry:  30 instr_id: 17171375 address: 0x3c33c98 fetch_issued: true event_cycle: 13864301 waits on -
[cpu0_LQ] entry:  31 empty
[cpu0_LQ] entry:  32 instr_id: 17171596 address: 0x3c371a8 fetch_issued: true event_cycle: 13864364 waits on -
[cpu0_LQ] entry:  33 instr_id: 17171367 address: 0x3c33ca8 fetch_issued: true event_cycle: 13864299 waits on -
[cpu0_LQ] entry:  34 empty
[cpu0_LQ] entry:  35 empty
[cpu0_LQ] entry:  36 empty
[cpu0_LQ] entry:  37 empty
[cpu0_LQ] entry:  38 empty
[cpu0_LQ] entry:  39 empty
[cpu0_LQ] entry:  40 empty
[cpu0_LQ] entry:  41 empty
[cpu0_LQ] entry:  42 empty
[cpu0_LQ] entry:  43 empty
[cpu0_LQ] entry:  44 empty
[cpu0_LQ] entry:  45 instr_id: 17171599 address: 0x3c371b0 fetch_issued: true event_cycle: 13864365 waits on -
[cpu0_LQ] entry:  46 empty
[cpu0_LQ] entry:  47 empty
[cpu0_LQ] entry:  48 empty
[cpu0_LQ] entry:  49 empty
[cpu0_LQ] entry:  50 empty
[cpu0_LQ] entry:  51 empty
[cpu0_LQ] entry:  52 empty
[cpu0_LQ] entry:  53 empty
[cpu0_LQ] entry:  54 empty
[cpu0_LQ] entry:  55 empty
[cpu0_LQ] entry:  56 empty
[cpu0_LQ] entry:  57 empty
[cpu0_LQ] entry:  58 empty
[cpu0_LQ] entry:  59 instr_id: 17171669 address: 0x3c371a0 fetch_issued: true event_cycle: 13864382 waits on -
[cpu0_LQ] entry:  60 instr_id: 17171673 address: 0x3c371a8 fetch_issued: true event_cycle: 13864383 waits on -
[cpu0_LQ] entry:  61 empty
[cpu0_LQ] entry:  62 instr_id: 17171686 address: 0x3c37180 fetch_issued: true event_cycle: 13864387 waits on -
[cpu0_LQ] entry:  63 empty
[cpu0_LQ] entry:  64 empty
[cpu0_LQ] entry:  65 empty
[cpu0_LQ] entry:  66 empty
[cpu0_LQ] entry:  67 empty
[cpu0_LQ] entry:  68 empty
[cpu0_LQ] entry:  69 empty
[cpu0_LQ] entry:  70 empty
[cpu0_LQ] entry:  71 empty
[cpu0_LQ] entry:  72 empty
[cpu0_LQ] entry:  73 empty
[cpu0_LQ] entry:  74 empty
[cpu0_LQ] entry:  75 empty
[cpu0_LQ] entry:  76 empty
[cpu0_LQ] entry:  77 empty
[cpu0_LQ] entry:  78 empty
[cpu0_LQ] entry:  79 empty
[cpu0_LQ] entry:  80 empty
[cpu0_LQ] entry:  81 empty
[cpu0_LQ] entry:  82 empty
[cpu0_LQ] entry:  83 empty
[cpu0_LQ] entry:  84 empty
[cpu0_LQ] entry:  85 empty
[cpu0_LQ] entry:  86 empty
[cpu0_LQ] entry:  87 empty
[cpu0_LQ] entry:  88 empty
[cpu0_LQ] entry:  89 empty
[cpu0_LQ] entry:  90 empty
[cpu0_LQ] entry:  91 empty
[cpu0_LQ] entry:  92 empty
[cpu0_LQ] entry:  93 empty
[cpu0_LQ] entry:  94 empty
[cpu0_LQ] entry:  95 empty
[cpu0_LQ] entry:  96 empty
[cpu0_LQ] entry:  97 empty
[cpu0_LQ] entry:  98 empty
[cpu0_LQ] entry:  99 empty
[cpu0_LQ] entry: 100 empty
[cpu0_LQ] entry: 101 empty
[cpu0_LQ] entry: 102 empty
[cpu0_LQ] entry: 103 empty
[cpu0_LQ] entry: 104 empty
[cpu0_LQ] entry: 105 empty
[cpu0_LQ] entry: 106 empty
[cpu0_LQ] entry: 107 empty
[cpu0_LQ] entry: 108 empty
[cpu0_LQ] entry: 109 empty
[cpu0_LQ] entry: 110 empty
[cpu0_LQ] entry: 111 empty
[cpu0_LQ] entry: 112 empty
[cpu0_LQ] entry: 113 empty
[cpu0_LQ] entry: 114 empty
[cpu0_LQ] entry: 115 empty
[cpu0_LQ] entry: 116 empty
[cpu0_LQ] entry: 117 empty
[cpu0_LQ] entry: 118 empty
[cpu0_LQ] entry: 119 empty
[cpu0_LQ] entry: 120 empty
[cpu0_LQ] entry: 121 empty
[cpu0_LQ] entry: 122 empty
[cpu0_LQ] entry: 123 empty
[cpu0_LQ] entry: 124 empty
[cpu0_LQ] entry: 125 empty
[cpu0_LQ] entry: 126 empty
[cpu0_LQ] entry: 127 empty

[cpu0_SQ] entry:   0 instr_id: 17171404 address: 0x7ffe8f1563d0 fetch_issued: true event_cycle: 13864310 LQ waiting: [18446744073709551615, 18446744073709551615]
[cpu0_SQ] entry:   1 instr_id: 17171410 address: 0x7ffe8f1563c8 fetch_issued: true event_cycle: 13864311 LQ waiting: []
[cpu0_SQ] entry:   2 instr_id: 17171411 address: 0x7ffe8f1563de fetch_issued: true event_cycle: 13864311 LQ waiting: []
[cpu0_SQ] entry:   3 instr_id: 17171413 address: 0x7ffe8f156384 fetch_issued: true event_cycle: 13864312 LQ waiting: []
[cpu0_SQ] entry:   4 instr_id: 17171418 address: 0x7ffe8f156410 fetch_issued: true event_cycle: 13864313 LQ waiting: []
[cpu0_SQ] entry:   5 instr_id: 17171422 address: 0x7ffe8f156418 fetch_issued: true event_cycle: 13864314 LQ waiting: [18446744073709551615]
[cpu0_SQ] entry:   6 instr_id: 17171457 address: 0x7ffe8f1563d0 fetch_issued: true event_cycle: 13864323 LQ waiting: [18446744073709551615, 18446744073709551615, 18446744073709551615]
[cpu0_SQ] entry:   7 instr_id: 17171462 address: 0x7ffe8f156410 fetch_issued: true event_cycle: 13864324 LQ waiting: []
[cpu0_SQ] entry:   8 instr_id: 17171466 address: 0x7ffe8f156418 fetch_issued: true event_cycle: 13864325 LQ waiting: [18446744073709551615]
[cpu0_SQ] entry:   9 instr_id: 17171506 address: 0x7ffe8f156390 fetch_issued: true event_cycle: 13864339 LQ waiting: [18446744073709551615]
[cpu0_SQ] entry:  10 instr_id: 17171515 address: 0x7ffe8f15640c fetch_issued: true event_cycle: 13864341 LQ waiting: [18446744073709551615, 18446744073709551615]
[cpu0_SQ] entry:  11 instr_id: 17171524 address: 0x7ffe8f156400 fetch_issued: true event_cycle: 13864343 LQ waiting: []
[cpu0_SQ] entry:  12 instr_id: 17171550 address: 0x7ffe8f156390 fetch_issued: true event_cycle: 13864350 LQ waiting: []
[cpu0_SQ] entry:  13 instr_id: 17171576 address: 0x7ffe8f1563d0 fetch_issued: true event_cycle: 13864359 LQ waiting: []
[cpu0_SQ] entry:  14 instr_id: 17171585 address: 0x7ffe8f156368 fetch_issued: true event_cycle: 13864361 LQ waiting: []
[cpu0_SQ] entry:  15 instr_id: 17171600 address: 0x7ffe8f156358 fetch_issued: true event_cycle: 13864365 LQ waiting: []
[cpu0_SQ] entry:  16 instr_id: 17171601 address: 0x7ffe8f156340 fetch_issued: true event_cycle: 13864365 LQ waiting: []
[cpu0_SQ] entry:  17 instr_id: 17171602 address: 0x7ffe8f156328 fetch_issued: true event_cycle: 13864366 LQ waiting: [18446744073709551615]
[cpu0_SQ] entry:  18 instr_id: 17171604 address: 0x7ffe8f156330 fetch_issued: true event_cycle: 13864366 LQ waiting: [18446744073709551615]
[cpu0_SQ] entry:  19 instr_id: 17171605 address: 0x7ffe8f156338 fetch_issued: true event_cycle: 13864367 LQ waiting: [18446744073709551615]
[cpu0_SQ] entry:  20 instr_id: 17171606 address: 0x7ffe8f156348 fetch_issued: true event_cycle: 13864367 LQ waiting: [18446744073709551615]
[cpu0_SQ] entry:  21 instr_id: 17171607 address: 0x7ffe8f156350 fetch_issued: true event_cycle: 13864368 LQ waiting: [18446744073709551615]
[cpu0_SQ] entry:  22 instr_id: 17171636 address: 0x7ffe8f156368 fetch_issued: true event_cycle: 13864374 LQ waiting: []
[cpu0_SQ] entry:  23 instr_id: 17171637 address: 0x7ffe8f156338 fetch_issued: true event_cycle: 13864374 LQ waiting: []
[cpu0_SQ] entry:  24 instr_id: 17171638 address: 0x7ffe8f156340 fetch_issued: true event_cycle: 13864375 LQ waiting: []
[cpu0_SQ] entry:  25 instr_id: 17171640 address: 0x7ffe8f156348 fetch_issued: true event_cycle: 13864375 LQ waiting: []
[cpu0_SQ] entry:  26 instr_id: 17171641 address: 0x7ffe8f156350 fetch_issued: true event_cycle: 13864376 LQ waiting: []
[cpu0_SQ] entry:  27 instr_id: 17171643 address: 0x7ffe8f156358 fetch_issued: true event_cycle: 13864376 LQ waiting: []
[cpu0_SQ] entry:  28 instr_id: 17171644 address: 0x7ffe8f156360 fetch_issued: true event_cycle: 13864377 LQ waiting: []
[cpu0_SQ] entry:  29 instr_id: 17171662 address: 0x7ffe8f156318 fetch_issued: true event_cycle: 13864381 LQ waiting: []
[cpu0_SQ] entry:  30 instr_id: 17171677 address: 0x7ffe8f156308 fetch_issued: true event_cycle: 13864384 LQ waiting: [18446744073709551615]
[cpu0_SQ] entry:  31 instr_id: 17171678 address: 0x7ffe8f1562f0 fetch_issued: true event_cycle: 13864385 LQ waiting: [17171678]
[cpu0_SQ] entry:  32 instr_id: 17171679 address: 0x7ffe8f1562d8 fetch_issued: true event_cycle: 13864385 LQ waiting: [17171679]
[cpu0_SQ] entry:  33 instr_id: 17171681 address: 0x7ffe8f1562e0 fetch_issued: true event_cycle: 13864386 LQ waiting: [17171681]
[cpu0_SQ] entry:  34 instr_id: 17171682 address: 0x7ffe8f1562e8 fetch_issued: true event_cycle: 13864386 LQ waiting: [17171682]
[cpu0_SQ] entry:  35 instr_id: 17171683 address: 0x7ffe8f1562f8 fetch_issued: true event_cycle: 13864387 LQ waiting: [17171683]
[cpu0_SQ] entry:  36 instr_id: 17171684 address: 0x7ffe8f156300 fetch_issued: true event_cycle: 13864387 LQ waiting: [17171684]

[cpu0_STLB_MSHR] entry:   0 instr_id: 17171362 address: 0x3c33ca0 v_addr: 0x3c33ca0 type: LOAD ready: true
[cpu0_STLB_MSHR] entry:   1 instr_id: 17171592 address: 0x3c371a0 v_addr: 0x3c371a0 type: LOAD ready: true

cpu0_STLB_tags empty

cpu0_STLB_translation empty

cpu0_STLB_RQ empty

cpu0_STLB_WQ empty

cpu0_STLB_PQ empty

cpu0_STLB_RQ empty

cpu0_STLB_WQ empty

cpu0_STLB_PQ empty

cpu0_STLB_RQ empty

cpu0_STLB_WQ empty

cpu0_STLB_PQ empty

cpu0_L2C_MSHR empty

cpu0_L2C_tags empty

cpu0_L2C_translation empty

cpu0_L2C_RQ empty

cpu0_L2C_WQ empty

cpu0_L2C_PQ empty

cpu0_L2C_RQ empty

cpu0_L2C_WQ empty

cpu0_L2C_PQ empty

cpu0_L1I_MSHR empty

cpu0_L1I_tags empty

cpu0_L1I_translation empty

cpu0_L1I_RQ empty

cpu0_L1I_WQ empty

cpu0_L1I_PQ empty

cpu0_L1D_MSHR empty

cpu0_L1D_tags empty

[cpu0_L1D_translation] entry:   0 instr_id: 17171362 address: 0x3c33ca0 v_addr: 0x3c33ca0 is_translated: false translate_issued: true event_cycle: 13864388
[cpu0_L1D_translation] entry:   1 instr_id: 17171374 address: 0x3c33c60 v_addr: 0x3c33c60 is_translated: false translate_issued: true event_cycle: 13864391
[cpu0_L1D_translation] entry:   2 instr_id: 17171592 address: 0x3c371a0 v_addr: 0x3c371a0 is_translated: false translate_issued: true event_cycle: 13864423

cpu0_L1D_RQ empty

cpu0_L1D_WQ empty

cpu0_L1D_PQ empty

cpu0_L1D_RQ empty

cpu0_L1D_WQ empty

cpu0_L1D_PQ empty

cpu0_ITLB_MSHR empty

cpu0_ITLB_tags empty

cpu0_ITLB_translation empty

cpu0_ITLB_RQ empty

cpu0_ITLB_WQ empty

cpu0_ITLB_PQ empty

[cpu0_DTLB_MSHR] entry:   0 instr_id: 17171374 address: 0x3c33c60 v_addr: 0x3c33c60 type: LOAD ready: false
[cpu0_DTLB_MSHR] entry:   1 instr_id: 17171592 address: 0x3c371a0 v_addr: 0x3c371a0 type: LOAD ready: false

cpu0_DTLB_tags empty

cpu0_DTLB_translation empty

cpu0_DTLB_RQ empty

cpu0_DTLB_WQ empty

cpu0_DTLB_PQ empty

LLC_MSHR empty

LLC_tags empty

LLC_translation empty

LLC_RQ empty

LLC_WQ empty

LLC_PQ empty

cpu0_PTW_MSHR empty

DRAM Channel 0
[RQ] entry:   0 empty
[RQ] entry:   1 empty
[RQ] entry:   2 empty
[RQ] entry:   3 empty
[RQ] entry:   4 empty
[RQ] entry:   5 empty
[RQ] entry:   6 empty
[RQ] entry:   7 empty
[RQ] entry:   8 empty
[RQ] entry:   9 empty
[RQ] entry:  10 empty
[RQ] entry:  11 empty
[RQ] entry:  12 empty
[RQ] entry:  13 empty
[RQ] entry:  14 empty
[RQ] entry:  15 empty
[RQ] entry:  16 empty
[RQ] entry:  17 empty
[RQ] entry:  18 empty
[RQ] entry:  19 empty
[RQ] entry:  20 empty
[RQ] entry:  21 empty
[RQ] entry:  22 empty
[RQ] entry:  23 empty
[RQ] entry:  24 empty
[RQ] entry:  25 empty
[RQ] entry:  26 empty
[RQ] entry:  27 empty
[RQ] entry:  28 empty
[RQ] entry:  29 empty
[RQ] entry:  30 empty
[RQ] entry:  31 empty
[RQ] entry:  32 empty
[RQ] entry:  33 empty
[RQ] entry:  34 empty
[RQ] entry:  35 empty
[RQ] entry:  36 empty
[RQ] entry:  37 empty
[RQ] entry:  38 empty
[RQ] entry:  39 empty
[RQ] entry:  40 empty
[RQ] entry:  41 empty
[RQ] entry:  42 empty
[RQ] entry:  43 empty
[RQ] entry:  44 empty
[RQ] entry:  45 empty
[RQ] entry:  46 empty
[RQ] entry:  47 empty
[RQ] entry:  48 empty
[RQ] entry:  49 empty
[RQ] entry:  50 empty
[RQ] entry: 