[VMEM] WARNING: physical memory size is smaller than virtual memory size.

*** ChampSim Multicore Out-of-Order Simulator ***
Warmup Instructions: 20000000
Simulation Instructions: 10000000
Number of CPUs: 1
Page size: 4096

Off-chip DRAM Size: 16 GiB Channels: 1 Width: 64-bit Data Rate: 3205 MT/s
DEADLOCK! CPU 0 cycle 4949361
[cpu0_IFETCH] entry:   0 instr_id: 6178698 fetch_issued: true fetch_completed: true scheduled: false executed: false completed: false num_reg_dependent: 0 num_mem_ops: 0 event: 4948786
[cpu0_IFETCH] entry:   1 instr_id: 6178699 fetch_issued: true fetch_completed: true scheduled: false executed: false completed: false num_reg_dependent: 0 num_mem_ops: 0 event: 4948786
[cpu0_IFETCH] entry:   2 instr_id: 6178700 fetch_issued: true fetch_completed: true scheduled: false executed: false completed: false num_reg_dependent: 0 num_mem_ops: 0 event: 4948786
[cpu0_IFETCH] entry:   3 instr_id: 6178701 fetch_issued: true fetch_completed: true scheduled: false executed: false completed: false num_reg_dependent: 0 num_mem_ops: 0 event: 4948786
[cpu0_IFETCH] entry:   4 instr_id: 6178702 fetch_issued: true fetch_completed: true scheduled: false executed: false completed: false num_reg_dependent: 0 num_mem_ops: 0 event: 4948786
[cpu0_IFETCH] entry:   5 instr_id: 6178703 fetch_issued: true fetch_completed: true scheduled: false executed: false completed: false num_reg_dependent: 0 num_mem_ops: 0 event: 4948786
[cpu0_IFETCH] entry:   6 instr_id: 6178704 fetch_issued: true fetch_completed: true scheduled: false executed: false completed: false num_reg_dependent: 0 num_mem_ops: 0 event: 4948787
[cpu0_IFETCH] entry:   7 instr_id: 6178705 fetch_issued: true fetch_completed: true scheduled: false executed: false completed: false num_reg_dependent: 0 num_mem_ops: 1 event: 4948787
[cpu0_IFETCH] entry:   8 instr_id: 6178706 fetch_issued: true fetch_completed: true scheduled: false executed: false completed: false num_reg_dependent: 0 num_mem_ops: 0 event: 4948788
[cpu0_IFETCH] entry:   9 instr_id: 6178707 fetch_issued: true fetch_completed: true scheduled: false executed: false completed: false num_reg_dependent: 0 num_mem_ops: 0 event: 4948788
[cpu0_IFETCH] entry:  10 instr_id: 6178708 fetch_issued: true fetch_completed: true scheduled: false executed: false completed: false num_reg_dependent: 0 num_mem_ops: 1 event: 4948788
[cpu0_IFETCH] entry:  11 instr_id: 6178709 fetch_issued: true fetch_completed: true scheduled: false executed: false completed: false num_reg_dependent: 0 num_mem_ops: 1 event: 4948789
[cpu0_IFETCH] entry:  12 instr_id: 6178710 fetch_issued: true fetch_completed: true scheduled: false executed: false completed: false num_reg_dependent: 0 num_mem_ops: 1 event: 4948789
[cpu0_IFETCH] entry:  13 instr_id: 6178711 fetch_issued: true fetch_completed: true scheduled: false executed: false completed: false num_reg_dependent: 0 num_mem_ops: 0 event: 4948789
[cpu0_IFETCH] entry:  14 instr_id: 6178712 fetch_issued: true fetch_completed: true scheduled: false executed: false completed: false num_reg_dependent: 0 num_mem_ops: 1 event: 4948789
[cpu0_IFETCH] entry:  15 instr_id: 6178713 fetch_issued: true fetch_completed: true scheduled: false executed: false completed: false num_reg_dependent: 0 num_mem_ops: 1 event: 4948789
[cpu0_IFETCH] entry:  16 instr_id: 6178714 fetch_issued: true fetch_completed: true scheduled: false executed: false completed: false num_reg_dependent: 0 num_mem_ops: 0 event: 4948789
[cpu0_IFETCH] entry:  17 instr_id: 6178715 fetch_issued: true fetch_completed: true scheduled: false executed: false completed: false num_reg_dependent: 0 num_mem_ops: 1 event: 4948790
[cpu0_IFETCH] entry:  18 instr_id: 6178716 fetch_issued: true fetch_completed: true scheduled: false executed: false completed: false num_reg_dependent: 0 num_mem_ops: 1 event: 4948790
[cpu0_IFETCH] entry:  19 instr_id: 6178717 fetch_issued: true fetch_completed: true scheduled: false executed: false completed: false num_reg_dependent: 0 num_mem_ops: 0 event: 4948790
[cpu0_IFETCH] entry:  20 instr_id: 6178718 fetch_issued: true fetch_completed: true scheduled: false executed: false completed: false num_reg_dependent: 0 num_mem_ops: 1 event: 4948790
[cpu0_IFETCH] entry:  21 instr_id: 6178719 fetch_issued: true fetch_completed: true scheduled: false executed: false completed: false num_reg_dependent: 0 num_mem_ops: 0 event: 4948790
[cpu0_IFETCH] entry:  22 instr_id: 6178720 fetch_issued: true fetch_completed: true scheduled: false executed: false completed: false num_reg_dependent: 0 num_mem_ops: 0 event: 4948790
[cpu0_IFETCH] entry:  23 instr_id: 6178721 fetch_issued: true fetch_completed: true scheduled: false executed: false completed: false num_reg_dependent: 0 num_mem_ops: 0 event: 4948791
[cpu0_IFETCH] entry:  24 instr_id: 6178722 fetch_issued: true fetch_completed: true scheduled: false executed: false completed: false num_reg_dependent: 0 num_mem_ops: 0 event: 4948791
[cpu0_IFETCH] entry:  25 instr_id: 6178723 fetch_issued: true fetch_completed: true scheduled: false executed: false completed: false num_reg_dependent: 0 num_mem_ops: 1 event: 4948791
[cpu0_IFETCH] entry:  26 instr_id: 6178724 fetch_issued: true fetch_completed: true scheduled: false executed: false completed: false num_reg_dependent: 0 num_mem_ops: 0 event: 4948791
[cpu0_IFETCH] entry:  27 instr_id: 6178725 fetch_issued: true fetch_completed: true scheduled: false executed: false completed: false num_reg_dependent: 0 num_mem_ops: 0 event: 4948791
[cpu0_IFETCH] entry:  28 instr_id: 6178726 fetch_issued: true fetch_completed: true scheduled: false executed: false completed: false num_reg_dependent: 0 num_mem_ops: 0 event: 4948791
[cpu0_IFETCH] entry:  29 instr_id: 6178727 fetch_issued: true fetch_completed: true scheduled: false executed: false completed: false num_reg_dependent: 0 num_mem_ops: 0 event: 4948792
[cpu0_IFETCH] entry:  30 instr_id: 6178728 fetch_issued: true fetch_completed: true scheduled: false executed: false completed: false num_reg_dependent: 0 num_mem_ops: 1 event: 4948792
[cpu0_IFETCH] entry:  31 instr_id: 6178729 fetch_issued: true fetch_completed: true scheduled: false executed: false completed: false num_reg_dependent: 0 num_mem_ops: 1 event: 4948792
[cpu0_IFETCH] entry:  32 instr_id: 6178730 fetch_issued: true fetch_completed: true scheduled: false executed: false completed: false num_reg_dependent: 0 num_mem_ops: 0 event: 4948792
[cpu0_IFETCH] entry:  33 instr_id: 6178731 fetch_issued: true fetch_completed: true scheduled: false executed: false completed: false num_reg_dependent: 0 num_mem_ops: 1 event: 4948792
[cpu0_IFETCH] entry:  34 instr_id: 6178732 fetch_issued: true fetch_completed: true scheduled: false executed: false completed: false num_reg_dependent: 0 num_mem_ops: 0 event: 4948792
[cpu0_IFETCH] entry:  35 instr_id: 6178733 fetch_issued: true fetch_completed: true scheduled: false executed: false completed: false num_reg_dependent: 0 num_mem_ops: 0 event: 4948793
[cpu0_IFETCH] entry:  36 instr_id: 6178734 fetch_issued: true fetch_completed: true scheduled: false executed: false completed: false num_reg_dependent: 0 num_mem_ops: 0 event: 4948793
[cpu0_IFETCH] entry:  37 instr_id: 6178735 fetch_issued: true fetch_completed: true scheduled: false executed: false completed: false num_reg_dependent: 0 num_mem_ops: 0 event: 4948793
[cpu0_IFETCH] entry:  38 instr_id: 6178736 fetch_issued: true fetch_completed: true scheduled: false executed: false completed: false num_reg_dependent: 0 num_mem_ops: 0 event: 4948793
[cpu0_IFETCH] entry:  39 instr_id: 6178737 fetch_issued: true fetch_completed: true scheduled: false executed: false completed: false num_reg_dependent: 0 num_mem_ops: 0 event: 4948793
[cpu0_IFETCH] entry:  40 instr_id: 6178738 fetch_issued: true fetch_completed: true scheduled: false executed: false completed: false num_reg_dependent: 0 num_mem_ops: 0 event: 4948793
[cpu0_IFETCH] entry:  41 instr_id: 6178739 fetch_issued: true fetch_completed: true scheduled: false executed: false completed: false num_reg_dependent: 0 num_mem_ops: 0 event: 4948793
[cpu0_IFETCH] entry:  42 instr_id: 6178740 fetch_issued: true fetch_completed: true scheduled: false executed: false completed: false num_reg_dependent: 0 num_mem_ops: 1 event: 4948793
[cpu0_IFETCH] entry:  43 instr_id: 6178741 fetch_issued: true fetch_completed: true scheduled: false executed: false completed: false num_reg_dependent: 0 num_mem_ops: 0 event: 4948794
[cpu0_IFETCH] entry:  44 instr_id: 6178742 fetch_issued: true fetch_completed: true scheduled: false executed: false completed: false num_reg_dependent: 0 num_mem_ops: 0 event: 4948794
[cpu0_IFETCH] entry:  45 instr_id: 6178743 fetch_issued: true fetch_completed: true scheduled: false executed: false completed: false num_reg_dependent: 0 num_mem_ops: 1 event: 4948794
[cpu0_IFETCH] entry:  46 instr_id: 6178744 fetch_issued: true fetch_completed: true scheduled: false executed: false completed: false num_reg_dependent: 0 num_mem_ops: 1 event: 4948794
[cpu0_IFETCH] entry:  47 instr_id: 6178745 fetch_issued: true fetch_completed: true scheduled: false executed: false completed: false num_reg_dependent: 0 num_mem_ops: 1 event: 4948796
[cpu0_IFETCH] entry:  48 instr_id: 6178746 fetch_issued: true fetch_completed: true scheduled: false executed: false completed: false num_reg_dependent: 0 num_mem_ops: 1 event: 4948796
[cpu0_IFETCH] entry:  49 instr_id: 6178747 fetch_issued: true fetch_completed: true scheduled: false executed: false completed: false num_reg_dependent: 0 num_mem_ops: 0 event: 4948796
[cpu0_IFETCH] entry:  50 instr_id: 6178748 fetch_issued: true fetch_completed: true scheduled: false executed: false completed: false num_reg_dependent: 0 num_mem_ops: 1 event: 4948796
[cpu0_IFETCH] entry:  51 instr_id: 6178749 fetch_issued: true fetch_completed: true scheduled: false executed: false completed: false num_reg_dependent: 0 num_mem_ops: 0 event: 4948796
[cpu0_IFETCH] entry:  52 instr_id: 6178750 fetch_issued: true fetch_completed: true scheduled: false executed: false completed: false num_reg_dependent: 0 num_mem_ops: 1 event: 4948796
[cpu0_IFETCH] entry:  53 instr_id: 6178751 fetch_issued: true fetch_completed: true scheduled: false executed: false completed: false num_reg_dependent: 0 num_mem_ops: 0 event: 4948797
[cpu0_IFETCH] entry:  54 instr_id: 6178752 fetch_issued: true fetch_completed: true scheduled: false executed: false completed: false num_reg_dependent: 0 num_mem_ops: 0 event: 4948797
[cpu0_IFETCH] entry:  55 instr_id: 6178753 fetch_issued: true fetch_completed: true scheduled: false executed: false completed: false num_reg_dependent: 0 num_mem_ops: 0 event: 4948797
[cpu0_IFETCH] entry:  56 instr_id: 6178754 fetch_issued: true fetch_completed: true scheduled: false executed: false completed: false num_reg_dependent: 0 num_mem_ops: 1 event: 4948797
[cpu0_IFETCH] entry:  57 instr_id: 6178755 fetch_issued: true fetch_completed: true scheduled: false executed: false completed: false num_reg_dependent: 0 num_mem_ops: 1 event: 4948797
[cpu0_IFETCH] entry:  58 instr_id: 6178756 fetch_issued: true fetch_completed: true scheduled: false executed: false completed: false num_reg_dependent: 0 num_mem_ops: 0 event: 4948797
[cpu0_IFETCH] entry:  59 instr_id: 6178757 fetch_issued: true fetch_completed: true scheduled: false executed: false completed: false num_reg_dependent: 0 num_mem_ops: 0 event: 4948797
[cpu0_IFETCH] entry:  60 instr_id: 6178758 fetch_issued: true fetch_completed: true scheduled: false executed: false completed: false num_reg_dependent: 0 num_mem_ops: 0 event: 4948797
[cpu0_IFETCH] entry:  61 instr_id: 6178759 fetch_issued: true fetch_completed: true scheduled: false executed: false completed: false num_reg_dependent: 0 num_mem_ops: 0 event: 4948797
[cpu0_IFETCH] entry:  62 instr_id: 6178760 fetch_issued: true fetch_completed: true scheduled: false executed: false completed: false num_reg_dependent: 0 num_mem_ops: 1 event: 4948798
[cpu0_IFETCH] entry:  63 instr_id: 6178761 fetch_issued: true fetch_completed: true scheduled: false executed: false completed: false num_reg_dependent: 0 num_mem_ops: 0 event: 4948798

[cpu0_DECODE] entry:   0 instr_id: 6178640 fetch_issued: true fetch_completed: true scheduled: false executed: false completed: false num_reg_dependent: 0 num_mem_ops: 1 event: 4948784
[cpu0_DECODE] entry:   1 instr_id: 6178641 fetch_issued: true fetch_completed: true scheduled: false executed: false completed: false num_reg_dependent: 0 num_mem_ops: 0 event: 4948784
[cpu0_DECODE] entry:   2 instr_id: 6178642 fetch_issued: true fetch_completed: true scheduled: false executed: false completed: false num_reg_dependent: 0 num_mem_ops: 0 event: 4948785
[cpu0_DECODE] entry:   3 instr_id: 6178643 fetch_issued: true fetch_completed: true scheduled: false executed: false completed: false num_reg_dependent: 0 num_mem_ops: 0 event: 4948785
[cpu0_DECODE] entry:   4 instr_id: 6178644 fetch_issued: true fetch_completed: true scheduled: false executed: false completed: false num_reg_dependent: 0 num_mem_ops: 1 event: 4948785
[cpu0_DECODE] entry:   5 instr_id: 6178645 fetch_issued: true fetch_completed: true scheduled: false executed: false completed: false num_reg_dependent: 0 num_mem_ops: 1 event: 4948785
[cpu0_DECODE] entry:   6 instr_id: 6178646 fetch_issued: true fetch_completed: true scheduled: false executed: false completed: false num_reg_dependent: 0 num_mem_ops: 1 event: 4948785
[cpu0_DECODE] entry:   7 instr_id: 6178647 fetch_issued: true fetch_completed: true scheduled: false executed: false completed: false num_reg_dependent: 0 num_mem_ops: 1 event: 4948785
[cpu0_DECODE] entry:   8 instr_id: 6178648 fetch_issued: true fetch_completed: true scheduled: false executed: false completed: false num_reg_dependent: 0 num_mem_ops: 1 event: 4948786
[cpu0_DECODE] entry:   9 instr_id: 6178649 fetch_issued: true fetch_completed: true scheduled: false executed: false completed: false num_reg_dependent: 0 num_mem_ops: 1 event: 4948786
[cpu0_DECODE] entry:  10 instr_id: 6178650 fetch_issued: true fetch_completed: true scheduled: false executed: false completed: false num_reg_dependent: 0 num_mem_ops: 0 event: 4948786
[cpu0_DECODE] entry:  11 instr_id: 6178651 fetch_issued: true fetch_completed: true scheduled: false executed: false completed: false num_reg_dependent: 0 num_mem_ops: 1 event: 4948786
[cpu0_DECODE] entry:  12 instr_id: 6178652 fetch_issued: true fetch_completed: true scheduled: false executed: false completed: false num_reg_dependent: 0 num_mem_ops: 0 event: 4948786
[cpu0_DECODE] entry:  13 instr_id: 6178653 fetch_issued: true fetch_completed: true scheduled: false executed: false completed: false num_reg_dependent: 0 num_mem_ops: 0 event: 4948786
[cpu0_DECODE] entry:  14 instr_id: 6178654 fetch_issued: true fetch_completed: true scheduled: false executed: false completed: false num_reg_dependent: 0 num_mem_ops: 0 event: 4948787
[cpu0_DECODE] entry:  15 instr_id: 6178655 fetch_issued: true fetch_completed: true scheduled: false executed: false completed: false num_reg_dependent: 0 num_mem_ops: 1 event: 4948787
[cpu0_DECODE] entry:  16 instr_id: 6178656 fetch_issued: true fetch_completed: true scheduled: false executed: false completed: false num_reg_dependent: 0 num_mem_ops: 0 event: 4948787
[cpu0_DECODE] entry:  17 instr_id: 6178666 fetch_issued: true fetch_completed: true scheduled: false executed: false completed: false num_reg_dependent: 0 num_mem_ops: 0 event: 4948789
[cpu0_DECODE] entry:  18 instr_id: 6178667 fetch_issued: true fetch_completed: true scheduled: false executed: false completed: false num_reg_dependent: 0 num_mem_ops: 0 event: 4948789
[cpu0_DECODE] entry:  19 instr_id: 6178668 fetch_issued: true fetch_completed: true scheduled: false executed: false completed: false num_reg_dependent: 0 num_mem_ops: 0 event: 4948789
[cpu0_DECODE] entry:  20 instr_id: 6178669 fetch_issued: true fetch_completed: true scheduled: false executed: false completed: false num_reg_dependent: 0 num_mem_ops: 1 event: 4948789
[cpu0_DECODE] entry:  21 instr_id: 6178670 fetch_issued: true fetch_completed: true scheduled: false executed: false completed: false num_reg_dependent: 0 num_mem_ops: 0 event: 4948789
[cpu0_DECODE] entry:  22 instr_id: 6178671 fetch_issued: true fetch_completed: true scheduled: false executed: false completed: false num_reg_dependent: 0 num_mem_ops: 2 event: 4948789
[cpu0_DECODE] entry:  23 instr_id: 6178672 fetch_issued: true fetch_completed: true scheduled: false executed: false completed: false num_reg_dependent: 0 num_mem_ops: 0 event: 4948790
[cpu0_DECODE] entry:  24 instr_id: 6178673 fetch_issued: true fetch_completed: true scheduled: false executed: false completed: false num_reg_dependent: 0 num_mem_ops: 0 event: 4948790
[cpu0_DECODE] entry:  25 instr_id: 6178674 fetch_issued: true fetch_completed: true scheduled: false executed: false completed: false num_reg_dependent: 0 num_mem_ops: 0 event: 4948790

[cpu0_DISPATCH] entry:   0 instr_id: 6178608 fetch_issued: true fetch_completed: true scheduled: false executed: false completed: false num_reg_dependent: 0 num_mem_ops: 0 event: 4948785
[cpu0_DISPATCH] entry:   1 instr_id: 6178609 fetch_issued: true fetch_completed: true scheduled: false executed: false completed: false num_reg_dependent: 0 num_mem_ops: 1 event: 4948785
[cpu0_DISPATCH] entry:   2 instr_id: 6178610 fetch_issued: true fetch_completed: true scheduled: false executed: false completed: false num_reg_dependent: 0 num_mem_ops: 0 event: 4948785
[cpu0_DISPATCH] entry:   3 instr_id: 6178611 fetch_issued: true fetch_completed: true scheduled: false executed: false completed: false num_reg_dependent: 0 num_mem_ops: 0 event: 4948786
[cpu0_DISPATCH] entry:   4 instr_id: 6178612 fetch_issued: true fetch_completed: true scheduled: false executed: false completed: false num_reg_dependent: 0 num_mem_ops: 1 event: 4948786
[cpu0_DISPATCH] entry:   5 instr_id: 6178613 fetch_issued: true fetch_completed: true scheduled: false executed: false completed: false num_reg_dependent: 0 num_mem_ops: 1 event: 4948786
[cpu0_DISPATCH] entry:   6 instr_id: 6178614 fetch_issued: true fetch_completed: true scheduled: false executed: false completed: false num_reg_dependent: 0 num_mem_ops: 1 event: 4948786
[cpu0_DISPATCH] entry:   7 instr_id: 6178615 fetch_issued: true fetch_completed: true scheduled: false executed: false completed: false num_reg_dependent: 0 num_mem_ops: 0 event: 4948786
[cpu0_DISPATCH] entry:   8 instr_id: 6178616 fetch_issued: true fetch_completed: true scheduled: false executed: false completed: false num_reg_dependent: 0 num_mem_ops: 1 event: 4948787
[cpu0_DISPATCH] entry:   9 instr_id: 6178617 fetch_issued: true fetch_completed: true scheduled: false executed: false completed: false num_reg_dependent: 0 num_mem_ops: 1 event: 4948787
[cpu0_DISPATCH] entry:  10 instr_id: 6178618 fetch_issued: true fetch_completed: true scheduled: false executed: false completed: false num_reg_dependent: 0 num_mem_ops: 0 event: 4948787
[cpu0_DISPATCH] entry:  11 instr_id: 6178619 fetch_issued: true fetch_completed: true scheduled: false executed: false completed: false num_reg_dependent: 0 num_mem_ops: 1 event: 4948787
[cpu0_DISPATCH] entry:  12 instr_id: 6178620 fetch_issued: true fetch_completed: true scheduled: false executed: false completed: false num_reg_dependent: 0 num_mem_ops: 1 event: 4948787
[cpu0_DISPATCH] entry:  13 instr_id: 6178621 fetch_issued: true fetch_completed: true scheduled: false executed: false completed: false num_reg_dependent: 0 num_mem_ops: 0 event: 4948788
[cpu0_DISPATCH] entry:  14 instr_id: 6178622 fetch_issued: true fetch_completed: true scheduled: false executed: false completed: false num_reg_dependent: 0 num_mem_ops: 1 event: 4948788
[cpu0_DISPATCH] entry:  15 instr_id: 6178623 fetch_issued: true fetch_completed: true scheduled: false executed: false completed: false num_reg_dependent: 0 num_mem_ops: 0 event: 4948788
[cpu0_DISPATCH] entry:  16 instr_id: 6178624 fetch_issued: true fetch_completed: true scheduled: false executed: false completed: false num_reg_dependent: 0 num_mem_ops: 0 event: 4948788
[cpu0_DISPATCH] entry:  17 instr_id: 6178625 fetch_issued: true fetch_completed: true scheduled: false executed: false completed: false num_reg_dependent: 0 num_mem_ops: 0 event: 4948788
[cpu0_DISPATCH] entry:  18 instr_id: 6178626 fetch_issued: true fetch_completed: true scheduled: false executed: false completed: false num_reg_dependent: 0 num_mem_ops: 0 event: 4948789
[cpu0_DISPATCH] entry:  19 instr_id: 6178627 fetch_issued: true fetch_completed: true scheduled: false executed: false completed: false num_reg_dependent: 0 num_mem_ops: 1 event: 4948789
[cpu0_DISPATCH] entry:  20 instr_id: 6178628 fetch_issued: true fetch_completed: true scheduled: false executed: false completed: false num_reg_dependent: 0 num_mem_ops: 0 event: 4948789
[cpu0_DISPATCH] entry:  21 instr_id: 6178629 fetch_issued: true fetch_completed: true scheduled: false executed: false completed: false num_reg_dependent: 0 num_mem_ops: 0 event: 4948789
[cpu0_DISPATCH] entry:  22 instr_id: 6178630 fetch_issued: true fetch_completed: true scheduled: false executed: false completed: false num_reg_dependent: 0 num_mem_ops: 0 event: 4948790
[cpu0_DISPATCH] entry:  23 instr_id: 6178631 fetch_issued: true fetch_completed: true scheduled: false executed: false completed: false num_reg_dependent: 0 num_mem_ops: 0 event: 4948790
[cpu0_DISPATCH] entry:  24 instr_id: 6178632 fetch_issued: true fetch_completed: true scheduled: false executed: false completed: false num_reg_dependent: 0 num_mem_ops: 1 event: 4948790
[cpu0_DISPATCH] entry:  25 instr_id: 6178633 fetch_issued: true fetch_completed: true scheduled: false executed: false completed: false num_reg_dependent: 0 num_mem_ops: 1 event: 4948790
[cpu0_DISPATCH] entry:  26 instr_id: 6178634 fetch_issued: true fetch_completed: true scheduled: false executed: false completed: false num_reg_dependent: 0 num_mem_ops: 0 event: 4948790
[cpu0_DISPATCH] entry:  27 instr_id: 6178635 fetch_issued: true fetch_completed: true scheduled: false executed: false completed: false num_reg_dependent: 0 num_mem_ops: 1 event: 4948791
[cpu0_DISPATCH] entry:  28 instr_id: 6178636 fetch_issued: true fetch_completed: true scheduled: false executed: false completed: false num_reg_dependent: 0 num_mem_ops: 0 event: 4948791
[cpu0_DISPATCH] entry:  29 instr_id: 6178637 fetch_issued: true fetch_completed: true scheduled: false executed: false completed: false num_reg_dependent: 0 num_mem_ops: 0 event: 4948791
[cpu0_DISPATCH] entry:  30 instr_id: 6178638 fetch_issued: true fetch_completed: true scheduled: false executed: false completed: false num_reg_dependent: 0 num_mem_ops: 1 event: 4948791
[cpu0_DISPATCH] entry:  31 instr_id: 6178639 fetch_issued: true fetch_completed: true scheduled: false executed: false completed: false num_reg_dependent: 0 num_mem_ops: 1 event: 4948791

[cpu0_ROB] entry:   0 instr_id: 6178256 fetch_issued: true fetch_completed: true scheduled: true executed: true completed: false num_reg_dependent: 0 num_mem_ops: 1 event: 4948633
[cpu0_ROB] entry:   1 instr_id: 6178257 fetch_issued: true fetch_completed: true scheduled: true executed: true completed: true num_reg_dependent: 0 num_mem_ops: 0 event: 4948633
[cpu0_ROB] entry:   2 instr_id: 6178258 fetch_issued: true fetch_completed: true scheduled: true executed: true completed: true num_reg_dependent: 0 num_mem_ops: 0 event: 4948634
[cpu0_ROB] entry:   3 instr_id: 6178259 fetch_issued: true fetch_completed: true scheduled: true executed: true completed: true num_reg_dependent: 0 num_mem_ops: 0 event: 4948634
[cpu0_ROB] entry:   4 instr_id: 6178260 fetch_issued: true fetch_completed: true scheduled: true executed: true completed: true num_reg_dependent: 0 num_mem_ops: 0 event: 4948634
[cpu0_ROB] entry:   5 instr_id: 6178261 fetch_issued: true fetch_completed: true scheduled: true executed: true completed: true num_reg_dependent: 0 num_mem_ops: 0 event: 4948634
[cpu0_ROB] entry:   6 instr_id: 6178262 fetch_issued: true fetch_completed: true scheduled: true executed: true completed: true num_reg_dependent: 0 num_mem_ops: 0 event: 4948674
[cpu0_ROB] entry:   7 instr_id: 6178263 fetch_issued: true fetch_completed: true scheduled: true executed: true completed: true num_reg_dependent: 0 num_mem_ops: 0 event: 4948674
[cpu0_ROB] entry:   8 instr_id: 6178264 fetch_issued: true fetch_completed: true scheduled: true executed: true completed: true num_reg_dependent: 0 num_mem_ops: 0 event: 4948674
[cpu0_ROB] entry:   9 instr_id: 6178265 fetch_issued: true fetch_completed: true scheduled: true executed: true completed: true num_reg_dependent: 0 num_mem_ops: 0 event: 4948676
[cpu0_ROB] entry:  10 instr_id: 6178266 fetch_issued: true fetch_completed: true scheduled: true executed: true completed: true num_reg_dependent: 0 num_mem_ops: 0 event: 4948676
[cpu0_ROB] entry:  11 instr_id: 6178267 fetch_issued: true fetch_completed: true scheduled: true executed: true completed: true num_reg_dependent: 0 num_mem_ops: 0 event: 4948676
[cpu0_ROB] entry:  12 instr_id: 6178268 fetch_issued: true fetch_completed: true scheduled: true executed: true completed: true num_reg_dependent: 0 num_mem_ops: 0 event: 4948676
[cpu0_ROB] entry:  13 instr_id: 6178269 fetch_issued: true fetch_completed: true scheduled: true executed: true completed: true num_reg_dependent: 0 num_mem_ops: 0 event: 4948681
[cpu0_ROB] entry:  14 instr_id: 6178270 fetch_issued: true fetch_completed: true scheduled: true executed: true completed: true num_reg_dependent: 0 num_mem_ops: 0 event: 4948681
[cpu0_ROB] entry:  15 instr_id: 6178271 fetch_issued: true fetch_completed: true scheduled: true executed: true completed: true num_reg_dependent: 0 num_mem_ops: 0 event: 4948681
[cpu0_ROB] entry:  16 instr_id: 6178272 fetch_issued: true fetch_completed: true scheduled: true executed: true completed: true num_reg_dependent: 0 num_mem_ops: 0 event: 4948681
[cpu0_ROB] entry:  17 instr_id: 6178273 fetch_issued: true fetch_completed: true scheduled: true executed: true completed: true num_reg_dependent: 0 num_mem_ops: 0 event: 4948682
[cpu0_ROB] entry:  18 instr_id: 6178274 fetch_issued: true fetch_completed: true scheduled: true executed: true completed: true num_reg_dependent: 0 num_mem_ops: 0 event: 4948682
[cpu0_ROB] entry:  19 instr_id: 6178275 fetch_issued: true fetch_completed: true scheduled: true executed: true completed: true num_reg_dependent: 0 num_mem_ops: 0 event: 4948682
[cpu0_ROB] entry:  20 instr_id: 6178276 fetch_issued: true fetch_completed: true scheduled: true executed: true completed: true num_reg_dependent: 0 num_mem_ops: 0 event: 4948682
[cpu0_ROB] entry:  21 instr_id: 6178277 fetch_issued: true fetch_completed: true scheduled: true executed: true completed: true num_reg_dependent: 0 num_mem_ops: 0 event: 4948683
[cpu0_ROB] entry:  22 instr_id: 6178278 fetch_issued: true fetch_completed: true scheduled: true executed: true completed: true num_reg_dependent: 0 num_mem_ops: 0 event: 4948683
[cpu0_ROB] entry:  23 instr_id: 6178279 fetch_issued: true fetch_completed: true scheduled: true executed: true completed: true num_reg_dependent: 0 num_mem_ops: 0 event: 4948683
[cpu0_ROB] entry:  24 instr_id: 6178280 fetch_issued: true fetch_completed: true scheduled: true executed: true completed: true num_reg_dependent: 0 num_mem_ops: 0 event: 4948683
[cpu0_ROB] entry:  25 instr_id: 6178281 fetch_issued: true fetch_completed: true scheduled: true executed: true completed: true num_reg_dependent: 0 num_mem_ops: 0 event: 4948684
[cpu0_ROB] entry:  26 instr_id: 6178282 fetch_issued: true fetch_completed: true scheduled: true executed: true completed: true num_reg_dependent: 0 num_mem_ops: 0 event: 4948684
[cpu0_ROB] entry:  27 instr_id: 6178283 fetch_issued: true fetch_completed: true scheduled: true executed: true completed: true num_reg_dependent: 0 num_mem_ops: 0 event: 4948684
[cpu0_ROB] entry:  28 instr_id: 6178284 fetch_issued: true fetch_completed: true scheduled: true executed: true completed: true num_reg_dependent: 0 num_mem_ops: 0 event: 4948684
[cpu0_ROB] entry:  29 instr_id: 6178285 fetch_issued: true fetch_completed: true scheduled: true executed: true completed: true num_reg_dependent: 0 num_mem_ops: 0 event: 4948685
[cpu0_ROB] entry:  30 instr_id: 6178286 fetch_issued: true fetch_completed: true scheduled: true executed: true completed: true num_reg_dependent: 0 num_mem_ops: 0 event: 4948685
[cpu0_ROB] entry:  31 instr_id: 6178287 fetch_issued: true fetch_completed: true scheduled: true executed: true completed: true num_reg_dependent: 0 num_mem_ops: 0 event: 4948685
[cpu0_ROB] entry:  32 instr_id: 6178288 fetch_issued: true fetch_completed: true scheduled: true executed: true completed: true num_reg_dependent: 0 num_mem_ops: 0 event: 4948685
[cpu0_ROB] entry:  33 instr_id: 6178289 fetch_issued: true fetch_completed: true scheduled: true executed: true completed: true num_reg_dependent: 0 num_mem_ops: 0 event: 4948686
[cpu0_ROB] entry:  34 instr_id: 6178290 fetch_issued: true fetch_completed: true scheduled: true executed: true completed: true num_reg_dependent: 0 num_mem_ops: 0 event: 4948686
[cpu0_ROB] entry:  35 instr_id: 6178291 fetch_issued: true fetch_completed: true scheduled: true executed: true completed: true num_reg_dependent: 0 num_mem_ops: 0 event: 4948686
[cpu0_ROB] entry:  36 instr_id: 6178292 fetch_issued: true fetch_completed: true scheduled: true executed: true completed: true num_reg_dependent: 0 num_mem_ops: 0 event: 4948686
[cpu0_ROB] entry:  37 instr_id: 6178293 fetch_issued: true fetch_completed: true scheduled: true executed: true completed: true num_reg_dependent: 0 num_mem_ops: 0 event: 4948687
[cpu0_ROB] entry:  38 instr_id: 6178294 fetch_issued: true fetch_completed: true scheduled: true executed: true completed: true num_reg_dependent: 0 num_mem_ops: 0 event: 4948687
[cpu0_ROB] entry:  39 instr_id: 6178295 fetch_issued: true fetch_completed: true scheduled: true executed: true completed: true num_reg_dependent: 0 num_mem_ops: 0 event: 4948687
[cpu0_ROB] entry:  40 instr_id: 6178296 fetch_issued: true fetch_completed: true scheduled: true executed: true completed: true num_reg_dependent: 0 num_mem_ops: 0 event: 4948687
[cpu0_ROB] entry:  41 instr_id: 6178297 fetch_issued: true fetch_completed: true scheduled: true executed: true completed: true num_reg_dependent: 0 num_mem_ops: 0 event: 4948688
[cpu0_ROB] entry:  42 instr_id: 6178298 fetch_issued: true fetch_completed: true scheduled: true executed: true completed: true num_reg_dependent: 0 num_mem_ops: 0 event: 4948688
[cpu0_ROB] entry:  43 instr_id: 6178299 fetch_issued: true fetch_completed: true scheduled: true executed: true completed: true num_reg_dependent: 0 num_mem_ops: 0 event: 4948688
[cpu0_ROB] entry:  44 instr_id: 6178300 fetch_issued: true fetch_completed: true scheduled: true executed: true completed: true num_reg_dependent: 0 num_mem_ops: 0 event: 4948688
[cpu0_ROB] entry:  45 instr_id: 6178301 fetch_issued: true fetch_completed: true scheduled: true executed: true completed: true num_reg_dependent: 0 num_mem_ops: 0 event: 4948689
[cpu0_ROB] entry:  46 instr_id: 6178302 fetch_issued: true fetch_completed: true scheduled: true executed: true completed: true num_reg_dependent: 0 num_mem_ops: 0 event: 4948689
[cpu0_ROB] entry:  47 instr_id: 6178303 fetch_issued: true fetch_completed: true scheduled: true executed: true completed: true num_reg_dependent: 0 num_mem_ops: 0 event: 4948689
[cpu0_ROB] entry:  48 instr_id: 6178304 fetch_issued: true fetch_completed: true scheduled: true executed: true completed: true num_reg_dependent: 0 num_mem_ops: 0 event: 4948689
[cpu0_ROB] entry:  49 instr_id: 6178305 fetch_issued: true fetch_completed: true scheduled: true executed: true completed: true num_reg_dependent: 0 num_mem_ops: 0 event: 4948690
[cpu0_ROB] entry:  50 instr_id: 6178306 fetch_issued: true fetch_completed: true scheduled: true executed: true completed: true num_reg_dependent: 0 num_mem_ops: 0 event: 4948690
[cpu0_ROB] entry:  51 instr_id: 6178307 fetch_issued: true fetch_completed: true scheduled: true executed: true completed: true num_reg_dependent: 0 num_mem_ops: 0 event: 4948690
[cpu0_ROB] entry:  52 instr_id: 6178308 fetch_issued: true fetch_completed: true scheduled: true executed: true completed: true num_reg_dependent: 0 num_mem_ops: 0 event: 4948690
[cpu0_ROB] entry:  53 instr_id: 6178309 fetch_issued: true fetch_completed: true scheduled: true executed: true completed: true num_reg_dependent: 0 num_mem_ops: 0 event: 4948691
[cpu0_ROB] entry:  54 instr_id: 6178310 fetch_issued: true fetch_completed: true scheduled: true executed: true completed: true num_reg_dependent: 0 num_mem_ops: 0 event: 4948691
[cpu0_ROB] entry:  55 instr_id: 6178311 fetch_issued: true fetch_completed: true scheduled: true executed: true completed: true num_reg_dependent: 0 num_mem_ops: 0 event: 4948691
[cpu0_ROB] entry:  56 instr_id: 6178312 fetch_issued: true fetch_completed: true scheduled: true executed: true completed: true num_reg_dependent: 0 num_mem_ops: 0 event: 4948691
[cpu0_ROB] entry:  57 instr_id: 6178313 fetch_issued: true fetch_completed: true scheduled: true executed: true completed: true num_reg_dependent: 0 num_mem_ops: 0 event: 4948692
[cpu0_ROB] entry:  58 instr_id: 6178314 fetch_issued: true fetch_completed: true scheduled: true executed: true completed: true num_reg_dependent: 0 num_mem_ops: 0 event: 4948692
[cpu0_ROB] entry:  59 instr_id: 6178315 fetch_issued: true fetch_completed: true scheduled: true executed: true completed: true num_reg_dependent: 0 num_mem_ops: 0 event: 4948692
[cpu0_ROB] entry:  60 instr_id: 6178316 fetch_issued: true fetch_completed: true scheduled: true executed: true completed: true num_reg_dependent: 0 num_mem_ops: 0 event: 4948692
[cpu0_ROB] entry:  61 instr_id: 6178317 fetch_issued: true fetch_completed: true scheduled: true executed: true completed: true num_reg_dependent: 0 num_mem_ops: 0 event: 4948693
[cpu0_ROB] entry:  62 instr_id: 6178318 fetch_issued: true fetch_completed: true scheduled: true executed: true completed: true num_reg_dependent: 0 num_mem_ops: 0 event: 4948693
[cpu0_ROB] entry:  63 instr_id: 6178319 fetch_issued: true fetch_completed: true scheduled: true executed: true completed: true num_reg_dependent: 0 num_mem_ops: 0 event: 4948693
[cpu0_ROB] entry:  64 instr_id: 6178320 fetch_issued: true fetch_completed: true scheduled: true executed: true completed: true num_reg_dependent: 0 num_mem_ops: 0 event: 4948693
[cpu0_ROB] entry:  65 instr_id: 6178321 fetch_issued: true fetch_completed: true scheduled: true executed: true completed: true num_reg_dependent: 0 num_mem_ops: 0 event: 4948694
[cpu0_ROB] entry:  66 instr_id: 6178322 fetch_issued: true fetch_completed: true scheduled: true executed: true completed: true num_reg_dependent: 0 num_mem_ops: 0 event: 4948704
[cpu0_ROB] entry:  67 instr_id: 6178323 fetch_issued: true fetch_completed: true scheduled: true executed: true completed: true num_reg_dependent: 0 num_mem_ops: 0 event: 4948704
[cpu0_ROB] entry:  68 instr_id: 6178324 fetch_issued: true fetch_completed: true scheduled: true executed: true completed: true num_reg_dependent: 0 num_mem_ops: 0 event: 4948704
[cpu0_ROB] entry:  69 instr_id: 6178325 fetch_issued: true fetch_completed: true scheduled: true executed: true completed: true num_reg_dependent: 0 num_mem_ops: 0 event: 4948704
[cpu0_ROB] entry:  70 instr_id: 6178326 fetch_issued: true fetch_completed: true scheduled: true executed: true completed: true num_reg_dependent: 0 num_mem_ops: 0 event: 4948705
[cpu0_ROB] entry:  71 instr_id: 6178327 fetch_issued: true fetch_completed: true scheduled: true executed: true completed: true num_reg_dependent: 0 num_mem_ops: 0 event: 4948705
[cpu0_ROB] entry:  72 instr_id: 6178328 fetch_issued: true fetch_completed: true scheduled: true executed: true completed: true num_reg_dependent: 0 num_mem_ops: 0 event: 4948705
[cpu0_ROB] entry:  73 instr_id: 6178329 fetch_issued: true fetch_completed: true scheduled: true executed: true completed: true num_reg_dependent: 0 num_mem_ops: 0 event: 4948705
[cpu0_ROB] entry:  74 instr_id: 6178330 fetch_issued: true fetch_completed: true scheduled: true executed: true completed: true num_reg_dependent: 0 num_mem_ops: 0 event: 4948706
[cpu0_ROB] entry:  75 instr_id: 6178331 fetch_issued: true fetch_completed: true scheduled: true executed: true completed: true num_reg_dependent: 0 num_mem_ops: 0 event: 4948706
[cpu0_ROB] entry:  76 instr_id: 6178332 fetch_issued: true fetch_completed: true scheduled: true executed: true completed: true num_reg_dependent: 0 num_mem_ops: 0 event: 4948706
[cpu0_ROB] entry:  77 instr_id: 6178333 fetch_issued: true fetch_completed: true scheduled: true executed: true completed: true num_reg_dependent: 0 num_mem_ops: 0 event: 4948706
[cpu0_ROB] entry:  78 instr_id: 6178334 fetch_issued: true fetch_completed: true scheduled: true executed: true completed: true num_reg_dependent: 0 num_mem_ops: 0 event: 4948707
[cpu0_ROB] entry:  79 instr_id: 6178335 fetch_issued: true fetch_completed: true scheduled: true executed: true completed: true num_reg_dependent: 0 num_mem_ops: 0 event: 4948707
[cpu0_ROB] entry:  80 instr_id: 6178336 fetch_issued: true fetch_completed: true scheduled: true executed: true completed: true num_reg_dependent: 0 num_mem_ops: 0 event: 4948707
[cpu0_ROB] entry:  81 instr_id: 6178337 fetch_issued: true fetch_completed: true scheduled: true executed: true completed: true num_reg_dependent: 0 num_mem_ops: 0 event: 4948707
[cpu0_ROB] entry:  82 instr_id: 6178338 fetch_issued: true fetch_completed: true scheduled: true executed: true completed: true num_reg_dependent: 0 num_mem_ops: 0 event: 4948708
[cpu0_ROB] entry:  83 instr_id: 6178339 fetch_issued: true fetch_completed: true scheduled: true executed: true completed: true num_reg_dependent: 0 num_mem_ops: 0 event: 4948708
[cpu0_ROB] entry:  84 instr_id: 6178340 fetch_issued: true fetch_completed: true scheduled: true executed: true completed: true num_reg_dependent: 0 num_mem_ops: 0 event: 4948708
[cpu0_ROB] entry:  85 instr_id: 6178341 fetch_issued: true fetch_completed: true scheduled: true executed: true completed: true num_reg_dependent: 0 num_mem_ops: 0 event: 4948708
[cpu0_ROB] entry:  86 instr_id: 6178342 fetch_issued: true fetch_completed: true scheduled: true executed: true completed: true num_reg_dependent: 0 num_mem_ops: 0 event: 4948709
[cpu0_ROB] entry:  87 instr_id: 6178343 fetch_issued: true fetch_completed: true scheduled: true executed: true completed: true num_reg_dependent: 0 num_mem_ops: 0 event: 4948709
[cpu0_ROB] entry:  88 instr_id: 6178344 fetch_issued: true fetch_completed: true scheduled: true executed: true completed: true num_reg_dependent: 0 num_mem_ops: 0 event: 4948709
[cpu0_ROB] entry:  89 instr_id: 6178345 fetch_issued: true fetch_completed: true scheduled: true executed: true completed: true num_reg_dependent: 0 num_mem_ops: 0 event: 4948709
[cpu0_ROB] entry:  90 instr_id: 6178346 fetch_issued: true fetch_completed: true scheduled: true executed: true completed: true num_reg_dependent: 0 num_mem_ops: 0 event: 4948710
[cpu0_ROB] entry:  91 instr_id: 6178347 fetch_issued: true fetch_completed: true scheduled: true executed: true completed: true num_reg_dependent: 0 num_mem_ops: 0 event: 4948710
[cpu0_ROB] entry:  92 instr_id: 6178348 fetch_issued: true fetch_completed: true scheduled: true executed: true completed: true num_reg_dependent: 0 num_mem_ops: 0 event: 4948710
[cpu0_ROB] entry:  93 instr_id: 6178349 fetch_issued: true fetch_completed: true scheduled: true executed: true completed: true num_reg_dependent: 0 num_mem_ops: 0 event: 4948710
[cpu0_ROB] entry:  94 instr_id: 6178350 fetch_issued: true fetch_completed: true scheduled: true executed: true completed: true num_reg_dependent: 0 num_mem_ops: 0 event: 4948711
[cpu0_ROB] entry:  95 instr_id: 6178351 fetch_issued: true fetch_completed: true scheduled: true executed: true completed: true num_reg_dependent: 0 num_mem_ops: 0 event: 4948711
[cpu0_ROB] entry:  96 instr_id: 6178352 fetch_issued: true fetch_completed: true scheduled: true executed: true completed: true num_reg_dependent: 0 num_mem_ops: 0 event: 4948711
[cpu0_ROB] entry:  97 instr_id: 6178353 fetch_issued: true fetch_completed: true scheduled: true executed: true completed: true num_reg_dependent: 0 num_mem_ops: 0 event: 4948711
[cpu0_ROB] entry:  98 instr_id: 6178354 fetch_issued: true fetch_completed: true scheduled: true executed: true completed: true num_reg_dependent: 0 num_mem_ops: 0 event: 4948712
[cpu0_ROB] entry:  99 instr_id: 6178355 fetch_issued: true fetch_completed: true scheduled: true executed: true completed: true num_reg_dependent: 0 num_mem_ops: 0 event: 4948712
[cpu0_ROB] entry: 100 instr_id: 6178356 fetch_issued: true fetch_completed: true scheduled: true executed: true completed: true num_reg_dependent: 0 num_mem_ops: 0 event: 4948712
[cpu0_ROB] entry: 101 instr_id: 6178357 fetch_issued: true fetch_completed: true scheduled: true executed: true completed: true num_reg_dependent: 0 num_mem_ops: 0 event: 4948712
[cpu0_ROB] entry: 102 instr_id: 6178358 fetch_issued: true fetch_completed: true scheduled: true executed: true completed: true num_reg_dependent: 0 num_mem_ops: 0 event: 4948713
[cpu0_ROB] entry: 103 instr_id: 6178359 fetch_issued: true fetch_completed: true scheduled: true executed: true completed: true num_reg_dependent: 0 num_mem_ops: 0 event: 4948713
[cpu0_ROB] entry: 104 instr_id: 6178360 fetch_issued: true fetch_completed: true scheduled: true executed: true completed: true num_reg_dependent: 0 num_mem_ops: 0 event: 4948713
[cpu0_ROB] entry: 105 instr_id: 6178361 fetch_issued: true fetch_completed: true scheduled: true executed: true completed: true num_reg_dependent: 0 num_mem_ops: 0 event: 4948713
[cpu0_ROB] entry: 106 instr_id: 6178362 fetch_issued: true fetch_completed: true scheduled: true executed: true completed: true num_reg_dependent: 0 num_mem_ops: 0 event: 4948714
[cpu0_ROB] entry: 107 instr_id: 6178363 fetch_issued: true fetch_completed: true scheduled: true executed: true completed: true num_reg_dependent: 0 num_mem_ops: 0 event: 4948714
[cpu0_ROB] entry: 108 instr_id: 6178364 fetch_issued: true fetch_completed: true scheduled: true executed: true completed: true num_reg_dependent: 0 num_mem_ops: 0 event: 4948714
[cpu0_ROB] entry: 109 instr_id: 6178365 fetch_issued: true fetch_completed: true scheduled: true executed: true completed: true num_reg_dependent: 0 num_mem_ops: 0 event: 4948714
[cpu0_ROB] entry: 110 instr_id: 6178366 fetch_issued: true fetch_completed: true scheduled: true executed: true completed: true num_reg_dependent: 0 num_mem_ops: 0 event: 4948715
[cpu0_ROB] entry: 111 instr_id: 6178367 fetch_issued: true fetch_completed: true scheduled: true executed: true completed: true num_reg_dependent: 0 num_mem_ops: 0 event: 4948715
[cpu0_ROB] entry: 112 instr_id: 6178368 fetch_issued: true fetch_completed: true scheduled: true executed: true completed: true num_reg_dependent: 0 num_mem_ops: 0 event: 4948715
[cpu0_ROB] entry: 113 instr_id: 6178369 fetch_issued: true fetch_completed: true scheduled: true executed: true completed: true num_reg_dependent: 0 num_mem_ops: 0 event: 4948715
[cpu0_ROB] entry: 114 instr_id: 6178370 fetch_issued: true fetch_completed: true scheduled: true executed: true completed: true num_reg_dependent: 0 num_mem_ops: 0 event: 4948716
[cpu0_ROB] entry: 115 instr_id: 6178371 fetch_issued: true fetch_completed: true scheduled: true executed: true completed: true num_reg_dependent: 0 num_mem_ops: 0 event: 4948716
[cpu0_ROB] entry: 116 instr_id: 6178372 fetch_issued: true fetch_completed: true scheduled: true executed: true completed: true num_reg_dependent: 0 num_mem_ops: 0 event: 4948716
[cpu0_ROB] entry: 117 instr_id: 6178373 fetch_issued: true fetch_completed: true scheduled: true executed: true completed: true num_reg_dependent: 0 num_mem_ops: 0 event: 4948716
[cpu0_ROB] entry: 118 instr_id: 6178374 fetch_issued: true fetch_completed: true scheduled: true executed: true completed: true num_reg_dependent: 0 num_mem_ops: 0 event: 4948717
[cpu0_ROB] entry: 119 instr_id: 6178375 fetch_issued: true fetch_completed: true scheduled: true executed: true completed: true num_reg_dependent: 0 num_mem_ops: 0 event: 4948717
[cpu0_ROB] entry: 120 instr_id: 6178376 fetch_issued: true fetch_completed: true scheduled: true executed: true completed: true num_reg_dependent: 0 num_mem_ops: 0 event: 4948717
[cpu0_ROB] entry: 121 instr_id: 6178377 fetch_issued: true fetch_completed: true scheduled: true executed: true completed: true num_reg_dependent: 0 num_mem_ops: 0 event: 4948717
[cpu0_ROB] entry: 122 instr_id: 6178378 fetch_issued: true fetch_completed: true scheduled: true executed: true completed: true num_reg_dependent: 0 num_mem_ops: 0 event: 4948718
[cpu0_ROB] entry: 123 instr_id: 6178379 fetch_issued: true fetch_completed: true scheduled: true executed: true completed: true num_reg_dependent: 0 num_mem_ops: 0 event: 4948718
[cpu0_ROB] entry: 124 instr_id: 6178380 fetch_issued: true fetch_completed: true scheduled: true executed: true completed: true num_reg_dependent: 0 num_mem_ops: 0 event: 4948718
[cpu0_ROB] entry: 125 instr_id: 6178381 fetch_issued: true fetch_completed: true scheduled: true executed: true completed: true num_reg_dependent: 0 num_mem_ops: 0 event: 4948718
[cpu0_ROB] entry: 126 instr_id: 6178382 fetch_issued: true fetch_completed: true scheduled: true executed: true completed: true num_reg_dependent: 0 num_mem_ops: 0 event: 4948719
[cpu0_ROB] entry: 127 instr_id: 6178383 fetch_issued: true fetch_completed: true scheduled: true executed: true completed: true num_reg_dependent: 0 num_mem_ops: 0 event: 4948724
[cpu0_ROB] entry: 128 instr_id: 6178384 fetch_issued: true fetch_completed: true scheduled: true executed: true completed: true num_reg_dependent: 0 num_mem_ops: 0 event: 4948724
[cpu0_ROB] entry: 129 instr_id: 6178385 fetch_issued: true fetch_completed: true scheduled: true executed: true completed: true num_reg_dependent: 0 num_mem_ops: 0 event: 4948724
[cpu0_ROB] entry: 130 instr_id: 6178386 fetch_issued: true fetch_completed: true scheduled: true executed: true completed: true num_reg_dependent: 0 num_mem_ops: 0 event: 4948724
[cpu0_ROB] entry: 131 instr_id: 6178387 fetch_issued: true fetch_completed: true scheduled: true executed: true completed: true num_reg_dependent: 0 num_mem_ops: 0 event: 4948725
[cpu0_ROB] entry: 132 instr_id: 6178388 fetch_issued: true fetch_completed: true scheduled: true executed: true completed: true num_reg_dependent: 0 num_mem_ops: 0 event: 4948725
[cpu0_ROB] entry: 133 instr_id: 6178389 fetch_issued: true fetch_completed: true scheduled: true executed: true completed: true num_reg_dependent: 0 num_mem_ops: 0 event: 4948725
[cpu0_ROB] entry: 134 instr_id: 6178390 fetch_issued: true fetch_completed: true scheduled: true executed: true completed: true num_reg_dependent: 0 num_mem_ops: 0 event: 4948725
[cpu0_ROB] entry: 135 instr_id: 6178391 fetch_issued: true fetch_completed: true scheduled: true executed: true completed: true num_reg_dependent: 0 num_mem_ops: 0 event: 4948726
[cpu0_ROB] entry: 136 instr_id: 6178392 fetch_issued: true fetch_completed: true scheduled: true executed: true completed: true num_reg_dependent: 0 num_mem_ops: 0 event: 4948726
[cpu0_ROB] entry: 137 instr_id: 6178393 fetch_issued: true fetch_completed: true scheduled: true executed: true completed: true num_reg_dependent: 0 num_mem_ops: 0 event: 4948726
[cpu0_ROB] entry: 138 instr_id: 6178394 fetch_issued: true fetch_completed: true scheduled: true executed: true completed: true num_reg_dependent: 0 num_mem_ops: 0 event: 4948726
[cpu0_ROB] entry: 139 instr_id: 6178395 fetch_issued: true fetch_completed: true scheduled: true executed: true completed: true num_reg_dependent: 0 num_mem_ops: 0 event: 4948727
[cpu0_ROB] entry: 140 instr_id: 6178396 fetch_issued: true fetch_completed: true scheduled: true executed: true completed: true num_reg_dependent: 0 num_mem_ops: 0 event: 4948727
[cpu0_ROB] entry: 141 instr_id: 6178397 fetch_issued: true fetch_completed: true scheduled: true executed: true completed: true num_reg_dependent: 0 num_mem_ops: 0 event: 4948727
[cpu0_ROB] entry: 142 instr_id: 6178398 fetch_issued: true fetch_completed: true scheduled: true executed: true completed: true num_reg_dependent: 0 num_mem_ops: 0 event: 4948727
[cpu0_ROB] entry: 143 instr_id: 6178399 fetch_issued: true fetch_completed: true scheduled: true executed: true completed: true num_reg_dependent: 0 num_mem_ops: 0 event: 4948728
[cpu0_ROB] entry: 144 instr_id: 6178400 fetch_issued: true fetch_completed: true scheduled: true executed: true completed: true num_reg_dependent: 0 num_mem_ops: 0 event: 4948728
[cpu0_ROB] entry: 145 instr_id: 6178401 fetch_issued: true fetch_completed: true scheduled: true executed: true completed: true num_reg_dependent: 0 num_mem_ops: 0 event: 4948728
[cpu0_ROB] entry: 146 instr_id: 6178402 fetch_issued: true fetch_completed: true scheduled: true executed: true completed: true num_reg_dependent: 0 num_mem_ops: 0 event: 4948728
[cpu0_ROB] entry: 147 instr_id: 6178403 fetch_issued: true fetch_completed: true scheduled: true executed: true completed: true num_reg_dependent: 0 num_mem_ops: 0 event: 4948729
[cpu0_ROB] entry: 148 instr_id: 6178404 fetch_issued: true fetch_completed: true scheduled: true executed: true completed: true num_reg_dependent: 0 num_mem_ops: 0 event: 4948729
[cpu0_ROB] entry: 149 instr_id: 6178405 fetch_issued: true fetch_completed: true scheduled: true executed: true completed: true num_reg_dependent: 0 num_mem_ops: 0 event: 4948729
[cpu0_ROB] entry: 150 instr_id: 6178406 fetch_issued: true fetch_completed: true scheduled: true executed: true completed: true num_reg_dependent: 0 num_mem_ops: 0 event: 4948729
[cpu0_ROB] entry: 151 instr_id: 6178407 fetch_issued: true fetch_completed: true scheduled: true executed: true completed: true num_reg_dependent: 0 num_mem_ops: 0 event: 4948730
[cpu0_ROB] entry: 152 instr_id: 6178408 fetch_issued: true fetch_completed: true scheduled: true executed: true completed: true num_reg_dependent: 0 num_mem_ops: 0 event: 4948730
[cpu0_ROB] entry: 153 instr_id: 6178409 fetch_issued: true fetch_completed: true scheduled: true executed: true completed: true num_reg_dependent: 0 num_mem_ops: 0 event: 4948730
[cpu0_ROB] entry: 154 instr_id: 6178410 fetch_issued: true fetch_completed: true scheduled: true executed: true completed: true num_reg_dependent: 0 num_mem_ops: 0 event: 4948730
[cpu0_ROB] entry: 155 instr_id: 6178411 fetch_issued: true fetch_completed: true scheduled: true executed: true completed: true num_reg_dependent: 0 num_mem_ops: 0 event: 4948731
[cpu0_ROB] entry: 156 instr_id: 6178412 fetch_issued: true fetch_completed: true scheduled: true executed: true completed: true num_reg_dependent: 0 num_mem_ops: 0 event: 4948731
[cpu0_ROB] entry: 157 instr_id: 6178413 fetch_issued: true fetch_completed: true scheduled: true executed: true completed: true num_reg_dependent: 0 num_mem_ops: 0 event: 4948731
[cpu0_ROB] entry: 158 instr_id: 6178414 fetch_issued: true fetch_completed: true scheduled: true executed: true completed: true num_reg_dependent: 0 num_mem_ops: 0 event: 4948731
[cpu0_ROB] entry: 159 instr_id: 6178415 fetch_issued: true fetch_completed: true scheduled: true executed: true completed: true num_reg_dependent: 0 num_mem_ops: 0 event: 4948732
[cpu0_ROB] entry: 160 instr_id: 6178416 fetch_issued: true fetch_completed: true scheduled: true executed: true completed: true num_reg_dependent: 0 num_mem_ops: 0 event: 4948732
[cpu0_ROB] entry: 161 instr_id: 6178417 fetch_issued: true fetch_completed: true scheduled: true executed: true completed: true num_reg_dependent: 0 num_mem_ops: 0 event: 4948732
[cpu0_ROB] entry: 162 instr_id: 6178418 fetch_issued: true fetch_completed: true scheduled: true executed: true completed: true num_reg_dependent: 0 num_mem_ops: 0 event: 4948732
[cpu0_ROB] entry: 163 instr_id: 6178419 fetch_issued: true fetch_completed: true scheduled: true executed: true completed: true num_reg_dependent: 0 num_mem_ops: 0 event: 4948733
[cpu0_ROB] entry: 164 instr_id: 6178420 fetch_issued: true fetch_completed: true scheduled: true executed: true completed: true num_reg_dependent: 0 num_mem_ops: 0 event: 4948733
[cpu0_ROB] entry: 165 instr_id: 6178421 fetch_issued: true fetch_completed: true scheduled: true executed: true completed: true num_reg_dependent: 0 num_mem_ops: 0 event: 4948733
[cpu0_ROB] entry: 166 instr_id: 6178422 fetch_issued: true fetch_completed: true scheduled: true executed: true completed: true num_reg_dependent: 0 num_mem_ops: 0 event: 4948733
[cpu0_ROB] entry: 167 instr_id: 6178423 fetch_issued: true fetch_completed: true scheduled: true executed: true completed: true num_reg_dependent: 0 num_mem_ops: 0 event: 4948734
[cpu0_ROB] entry: 168 instr_id: 6178424 fetch_issued: true fetch_completed: true scheduled: true executed: true completed: true num_reg_dependent: 0 num_mem_ops: 0 event: 4948734
[cpu0_ROB] entry: 169 instr_id: 6178425 fetch_issued: true fetch_completed: true scheduled: true executed: true completed: true num_reg_dependent: 0 num_mem_ops: 0 event: 4948734
[cpu0_ROB] entry: 170 instr_id: 6178426 fetch_issued: true fetch_completed: true scheduled: true executed: true completed: true num_reg_dependent: 0 num_mem_ops: 0 event: 4948734
[cpu0_ROB] entry: 171 instr_id: 6178427 fetch_issued: true fetch_completed: true scheduled: true executed: true completed: true num_reg_dependent: 0 num_mem_ops: 0 event: 4948735
[cpu0_ROB] entry: 172 instr_id: 6178428 fetch_issued: true fetch_completed: true scheduled: true executed: true completed: true num_reg_dependent: 0 num_mem_ops: 0 event: 4948735
[cpu0_ROB] entry: 173 instr_id: 6178429 fetch_issued: true fetch_completed: true scheduled: true executed: true completed: true num_reg_dependent: 0 num_mem_ops: 0 event: 4948735
[cpu0_ROB] entry: 174 instr_id: 6178430 fetch_issued: true fetch_completed: true scheduled: true executed: true completed: true num_reg_dependent: 0 num_mem_ops: 0 event: 4948735
[cpu0_ROB] entry: 175 instr_id: 6178431 fetch_issued: true fetch_completed: true scheduled: true executed: true completed: true num_reg_dependent: 0 num_mem_ops: 0 event: 4948736
[cpu0_ROB] entry: 176 instr_id: 6178432 fetch_issued: true fetch_completed: true scheduled: true executed: true completed: true num_reg_dependent: 0 num_mem_ops: 0 event: 4948736
[cpu0_ROB] entry: 177 instr_id: 6178433 fetch_issued: true fetch_completed: true scheduled: true executed: true completed: true num_reg_dependent: 0 num_mem_ops: 0 event: 4948736
[cpu0_ROB] entry: 178 instr_id: 6178434 fetch_issued: true fetch_completed: true scheduled: true executed: true completed: true num_reg_dependent: 0 num_mem_ops: 0 event: 4948736
[cpu0_ROB] entry: 179 instr_id: 6178435 fetch_issued: true fetch_completed: true scheduled: true executed: true completed: true num_reg_dependent: 0 num_mem_ops: 0 event: 4948737
[cpu0_ROB] entry: 180 instr_id: 6178436 fetch_issued: true fetch_completed: true scheduled: true executed: true completed: true num_reg_dependent: 0 num_mem_ops: 0 event: 4948737
[cpu0_ROB] entry: 181 instr_id: 6178437 fetch_issued: true fetch_completed: true scheduled: true executed: true completed: true num_reg_dependent: 0 num_mem_ops: 0 event: 4948737
[cpu0_ROB] entry: 182 instr_id: 6178438 fetch_issued: true fetch_completed: true scheduled: true executed: true completed: true num_reg_dependent: 0 num_mem_ops: 0 event: 4948737
[cpu0_ROB] entry: 183 instr_id: 6178439 fetch_issued: true fetch_completed: true scheduled: true executed: true completed: true num_reg_dependent: 0 num_mem_ops: 0 event: 4948760
[cpu0_ROB] entry: 184 instr_id: 6178440 fetch_issued: true fetch_completed: true scheduled: true executed: true completed: true num_reg_dependent: 0 num_mem_ops: 0 event: 4948760
[cpu0_ROB] entry: 185 instr_id: 6178441 fetch_issued: true fetch_completed: true scheduled: true executed: true completed: true num_reg_dependent: 0 num_mem_ops: 0 event: 4948760
[cpu0_ROB] entry: 186 instr_id: 6178442 fetch_issued: true fetch_completed: true scheduled: true executed: true completed: true num_reg_dependent: 0 num_mem_ops: 0 event: 4948760
[cpu0_ROB] entry: 187 instr_id: 6178443 fetch_issued: true fetch_completed: true scheduled: true executed: true completed: true num_reg_dependent: 0 num_mem_ops: 0 event: 4948761
[cpu0_ROB] entry: 188 instr_id: 6178444 fetch_issued: true fetch_completed: true scheduled: true executed: true completed: true num_reg_dependent: 0 num_mem_ops: 0 event: 4948761
[cpu0_ROB] entry: 189 instr_id: 6178445 fetch_issued: true fetch_completed: true scheduled: true executed: true completed: true num_reg_dependent: 0 num_mem_ops: 0 event: 4948761
[cpu0_ROB] entry: 190 instr_id: 6178446 fetch_issued: true fetch_completed: true scheduled: true executed: true completed: true num_reg_dependent: 0 num_mem_ops: 0 event: 4948761
[cpu0_ROB] entry: 191 instr_id: 6178447 fetch_issued: true fetch_completed: true scheduled: true executed: true completed: true num_reg_dependent: 0 num_mem_ops: 0 event: 4948762
[cpu0_ROB] entry: 192 instr_id: 6178448 fetch_issued: true fetch_completed: true scheduled: true executed: true completed: true num_reg_dependent: 0 num_mem_ops: 0 event: 4948762
[cpu0_ROB] entry: 193 instr_id: 6178449 fetch_issued: true fetch_completed: true scheduled: true executed: true completed: true num_reg_dependent: 0 num_mem_ops: 0 event: 4948762
[cpu0_ROB] entry: 194 instr_id: 6178450 fetch_issued: true fetch_completed: true scheduled: true executed: true completed: true num_reg_dependent: 0 num_mem_ops: 0 event: 4948762
[cpu0_ROB] entry: 195 instr_id: 6178451 fetch_issued: true fetch_completed: true scheduled: true executed: true completed: true num_reg_dependent: 0 num_mem_ops: 0 event: 4948763
[cpu0_ROB] entry: 196 instr_id: 6178452 fetch_issued: true fetch_completed: true scheduled: true executed: true completed: true num_reg_dependent: 0 num_mem_ops: 0 event: 4948763
[cpu0_ROB] entry: 197 instr_id: 6178453 fetch_issued: true fetch_completed: true scheduled: true executed: true completed: true num_reg_dependent: 0 num_mem_ops: 0 event: 4948763
[cpu0_ROB] entry: 198 instr_id: 6178454 fetch_issued: true fetch_completed: true scheduled: true executed: true completed: true num_reg_dependent: 0 num_mem_ops: 0 event: 4948763
[cpu0_ROB] entry: 199 instr_id: 6178455 fetch_issued: true fetch_completed: true scheduled: true executed: true completed: true num_reg_dependent: 0 num_mem_ops: 0 event: 4948764
[cpu0_ROB] entry: 200 instr_id: 6178456 fetch_issued: true fetch_completed: true scheduled: true executed: true completed: true num_reg_dependent: 0 num_mem_ops: 0 event: 4948764
[cpu0_ROB] entry: 201 instr_id: 6178457 fetch_issued: true fetch_completed: true scheduled: true executed: true completed: true num_reg_dependent: 0 num_mem_ops: 0 event: 4948764
[cpu0_ROB] entry: 202 instr_id: 6178458 fetch_issued: true fetch_completed: true scheduled: true executed: true completed: true num_reg_dependent: 0 num_mem_ops: 0 event: 4948764
[cpu0_ROB] entry: 203 instr_id: 6178459 fetch_issued: true fetch_completed: true scheduled: true executed: true completed: true num_reg_dependent: 0 num_mem_ops: 0 event: 4948765
[cpu0_ROB] entry: 204 instr_id: 6178460 fetch_issued: true fetch_completed: true scheduled: true executed: true completed: true num_reg_dependent: 0 num_mem_ops: 0 event: 4948765
[cpu0_ROB] entry: 205 instr_id: 6178461 fetch_issued: true fetch_completed: true scheduled: true executed: true completed: true num_reg_dependent: 0 num_mem_ops: 0 event: 4948765
[cpu0_ROB] entry: 206 instr_id: 6178462 fetch_issued: true fetch_completed: true scheduled: true executed: true completed: true num_reg_dependent: 0 num_mem_ops: 0 event: 4948765
[cpu0_ROB] entry: 207 instr_id: 6178463 fetch_issued: true fetch_completed: true scheduled: true executed: true completed: true num_reg_dependent: 0 num_mem_ops: 0 event: 4948766
[cpu0_ROB] entry: 208 instr_id: 6178464 fetch_issued: true fetch_completed: true scheduled: true executed: true completed: true num_reg_dependent: 0 num_mem_ops: 0 event: 4948766
[cpu0_ROB] entry: 209 instr_id: 6178465 fetch_issued: true fetch_completed: true scheduled: true executed: true completed: true num_reg_dependent: 0 num_mem_ops: 0 event: 4948766
[cpu0_ROB] entry: 210 instr_id: 6178466 fetch_issued: true fetch_completed: true scheduled: true executed: true completed: true num_reg_dependent: 0 num_mem_ops: 0 event: 4948766
[cpu0_ROB] entry: 211 instr_id: 6178467 fetch_issued: true fetch_completed: true scheduled: true executed: true completed: true num_reg_dependent: 0 num_mem_ops: 0 event: 4948767
[cpu0_ROB] entry: 212 instr_id: 6178468 fetch_issued: true fetch_completed: true scheduled: true executed: true completed: true num_reg_dependent: 0 num_mem_ops: 0 event: 4948767
[cpu0_ROB] entry: 213 instr_id: 6178469 fetch_issued: true fetch_completed: true scheduled: true executed: true completed: true num_reg_dependent: 0 num_mem_ops: 0 event: 4948767
[cpu0_ROB] entry: 214 instr_id: 6178470 fetch_issued: true fetch_completed: true scheduled: true executed: true completed: true num_reg_dependent: 0 num_mem_ops: 0 event: 4948767
[cpu0_ROB] entry: 215 instr_id: 6178471 fetch_issued: true fetch_completed: true scheduled: true executed: true completed: true num_reg_dependent: 0 num_mem_ops: 0 event: 4948768
[cpu0_ROB] entry: 216 instr_id: 6178472 fetch_issued: true fetch_completed: true scheduled: true executed: true completed: true num_reg_dependent: 0 num_mem_ops: 0 event: 4948768
[cpu0_ROB] entry: 217 instr_id: 6178473 fetch_issued: true fetch_completed: true scheduled: true executed: true completed: true num_reg_dependent: 0 num_mem_ops: 0 event: 4948768
[cpu0_ROB] entry: 218 instr_id: 6178474 fetch_issued: true fetch_completed: true scheduled: true executed: true completed: true num_reg_dependent: 0 num_mem_ops: 0 event: 4948768
[cpu0_ROB] entry: 219 instr_id: 6178475 fetch_issued: true fetch_completed: true scheduled: true executed: true completed: true num_reg_dependent: 0 num_mem_ops: 0 event: 4948769
[cpu0_ROB] entry: 220 instr_id: 6178476 fetch_issued: true fetch_completed: true scheduled: true executed: true completed: true num_reg_dependent: 0 num_mem_ops: 0 event: 4948769
[cpu0_ROB] entry: 221 instr_id: 6178477 fetch_issued: true fetch_completed: true scheduled: true executed: true completed: true num_reg_dependent: 0 num_mem_ops: 0 event: 4948769
[cpu0_ROB] entry: 222 instr_id: 6178478 fetch_issued: true fetch_completed: true scheduled: true executed: true completed: true num_reg_dependent: 0 num_mem_ops: 0 event: 4948769
[cpu0_ROB] entry: 223 instr_id: 6178479 fetch_issued: true fetch_completed: true scheduled: true executed: true completed: true num_reg_dependent: 0 num_mem_ops: 0 event: 4948770
[cpu0_ROB] entry: 224 instr_id: 6178480 fetch_issued: true fetch_completed: true scheduled: true executed: true completed: true num_reg_dependent: 0 num_mem_ops: 0 event: 4948770
[cpu0_ROB] entry: 225 instr_id: 6178481 fetch_issued: true fetch_completed: true scheduled: true executed: true completed: true num_reg_dependent: 0 num_mem_ops: 0 event: 4948770
[cpu0_ROB] entry: 226 instr_id: 6178482 fetch_issued: true fetch_completed: true scheduled: true executed: true completed: true num_reg_dependent: 0 num_mem_ops: 0 event: 4948770
[cpu0_ROB] entry: 227 instr_id: 6178483 fetch_issued: true fetch_completed: true scheduled: true executed: true completed: true num_reg_dependent: 0 num_mem_ops: 0 event: 4948771
[cpu0_ROB] entry: 228 instr_id: 6178484 fetch_issued: true fetch_completed: true scheduled: true executed: true completed: true num_reg_dependent: 0 num_mem_ops: 0 event: 4948771
[cpu0_ROB] entry: 229 instr_id: 6178485 fetch_issued: true fetch_completed: true scheduled: true executed: true completed: true num_reg_dependent: 0 num_mem_ops: 0 event: 4948771
[cpu0_ROB] entry: 230 instr_id: 6178486 fetch_issued: true fetch_completed: true scheduled: true executed: true completed: true num_reg_dependent: 0 num_mem_ops: 0 event: 4948771
[cpu0_ROB] entry: 231 instr_id: 6178487 fetch_issued: true fetch_completed: true scheduled: true executed: true completed: true num_reg_dependent: 0 num_mem_ops: 0 event: 4948772
[cpu0_ROB] entry: 232 instr_id: 6178488 fetch_issued: true fetch_completed: true scheduled: true executed: true completed: true num_reg_dependent: 0 num_mem_ops: 0 event: 4948772
[cpu0_ROB] entry: 233 instr_id: 6178489 fetch_issued: true fetch_completed: true scheduled: true executed: true completed: true num_reg_dependent: 0 num_mem_ops: 0 event: 4948772
[cpu0_ROB] entry: 234 instr_id: 6178490 fetch_issued: true fetch_completed: true scheduled: true executed: true completed: true num_reg_dependent: 0 num_mem_ops: 0 event: 4948772
[cpu0_ROB] entry: 235 instr_id: 6178491 fetch_issued: true fetch_completed: true scheduled: true executed: true completed: true num_reg_dependent: 0 num_mem_ops: 0 event: 4948773
[cpu0_ROB] entry: 236 instr_id: 6178492 fetch_issued: true fetch_completed: true scheduled: true executed: true completed: true num_reg_dependent: 0 num_mem_ops: 0 event: 4948773
[cpu0_ROB] entry: 237 instr_id: 6178493 fetch_issued: true fetch_completed: true scheduled: true executed: true completed: true num_reg_dependent: 0 num_mem_ops: 0 event: 4948773
[cpu0_ROB] entry: 238 instr_id: 6178494 fetch_issued: true fetch_completed: true scheduled: true executed: true completed: true num_reg_dependent: 0 num_mem_ops: 0 event: 4948773
[cpu0_ROB] entry: 239 instr_id: 6178495 fetch_issued: true fetch_completed: true scheduled: true executed: true completed: true num_reg_dependent: 0 num_mem_ops: 0 event: 4948774
[cpu0_ROB] entry: 240 instr_id: 6178496 fetch_issued: true fetch_completed: true scheduled: true executed: true completed: true num_reg_dependent: 0 num_mem_ops: 0 event: 4948774
[cpu0_ROB] entry: 241 instr_id: 6178497 fetch_issued: true fetch_completed: true scheduled: true executed: true completed: true num_reg_dependent: 0 num_mem_ops: 0 event: 4948774
[cpu0_ROB] entry: 242 instr_id: 6178498 fetch_issued: true fetch_completed: true scheduled: true executed: true completed: true num_reg_dependent: 0 num_mem_ops: 0 event: 4948774
[cpu0_ROB] entry: 243 instr_id: 6178499 fetch_issued: true fetch_completed: true scheduled: true executed: true completed: true num_reg_dependent: 0 num_mem_ops: 0 event: 4948775
[cpu0_ROB] entry: 244 instr_id: 6178500 fetch_issued: true fetch_completed: true scheduled: true executed: true completed: true num_reg_dependent: 0 num_mem_ops: 0 event: 4948775
[cpu0_ROB] entry: 245 instr_id: 6178501 fetch_issued: true fetch_completed: true scheduled: true executed: true completed: true num_reg_dependent: 0 num_mem_ops: 0 event: 4948775
[cpu0_ROB] entry: 246 instr_id: 6178502 fetch_issued: true fetch_completed: true scheduled: true executed: true completed: true num_reg_dependent: 0 num_mem_ops: 0 event: 4948775
[cpu0_ROB] entry: 247 instr_id: 6178503 fetch_issued: true fetch_completed: true scheduled: true executed: true completed: true num_reg_dependent: 0 num_mem_ops: 0 event: 4948776
[cpu0_ROB] entry: 248 instr_id: 6178504 fetch_issued: true fetch_completed: true scheduled: true executed: true completed: true num_reg_dependent: 0 num_mem_ops: 0 event: 4948776
[cpu0_ROB] entry: 249 instr_id: 6178505 fetch_issued: true fetch_completed: true scheduled: true executed: true completed: true num_reg_dependent: 0 num_mem_ops: 0 event: 4948776
[cpu0_ROB] entry: 250 instr_id: 6178506 fetch_issued: true fetch_completed: true scheduled: true executed: true completed: true num_reg_dependent: 0 num_mem_ops: 0 event: 4948776
[cpu0_ROB] entry: 251 instr_id: 6178507 fetch_issued: true fetch_completed: true scheduled: true executed: true completed: true num_reg_dependent: 0 num_mem_ops: 0 event: 4948777
[cpu0_ROB] entry: 252 instr_id: 6178508 fetch_issued: true fetch_completed: true scheduled: true executed: true completed: true num_reg_dependent: 0 num_mem_ops: 0 event: 4948777
[cpu0_ROB] entry: 253 instr_id: 6178509 fetch_issued: true fetch_completed: true scheduled: true executed: true completed: true num_reg_dependent: 0 num_mem_ops: 0 event: 4948777
[cpu0_ROB] entry: 254 instr_id: 6178510 fetch_issued: true fetch_completed: true scheduled: true executed: true completed: true num_reg_dependent: 0 num_mem_ops: 0 event: 4948777
[cpu0_ROB] entry: 255 instr_id: 6178511 fetch_issued: true fetch_completed: true scheduled: true executed: true completed: true num_reg_dependent: 0 num_mem_ops: 0 event: 4948778
[cpu0_ROB] entry: 256 instr_id: 6178512 fetch_issued: true fetch_completed: true scheduled: true executed: true completed: true num_reg_dependent: 0 num_mem_ops: 0 event: 4948778
[cpu0_ROB] entry: 257 instr_id: 6178513 fetch_issued: true fetch_completed: true scheduled: true executed: true completed: true num_reg_dependent: 0 num_mem_ops: 0 event: 4948778
[cpu0_ROB] entry: 258 instr_id: 6178514 fetch_issued: true fetch_completed: true scheduled: true executed: true completed: true num_reg_dependent: 0 num_mem_ops: 0 event: 4948778
[cpu0_ROB] entry: 259 instr_id: 6178515 fetch_issued: true fetch_completed: true scheduled: true executed: true completed: true num_reg_dependent: 0 num_mem_ops: 0 event: 4948779
[cpu0_ROB] entry: 260 instr_id: 6178516 fetch_issued: true fetch_completed: true scheduled: true executed: true completed: true num_reg_dependent: 0 num_mem_ops: 0 event: 4948779
[cpu0_ROB] entry: 261 instr_id: 6178517 fetch_issued: true fetch_completed: true scheduled: true executed: true completed: true num_reg_dependent: 0 num_mem_ops: 0 event: 4948779
[cpu0_ROB] entry: 262 instr_id: 6178518 fetch_issued: true fetch_completed: true scheduled: true executed: true completed: true num_reg_dependent: 0 num_mem_ops: 0 event: 4948779
[cpu0_ROB] entry: 263 instr_id: 6178519 fetch_issued: true fetch_completed: true scheduled: true executed: true completed: true num_reg_dependent: 0 num_mem_ops: 0 event: 4948780
[cpu0_ROB] entry: 264 instr_id: 6178520 fetch_issued: true fetch_completed: true scheduled: true executed: true completed: true num_reg_dependent: 0 num_mem_ops: 0 event: 4948780
[cpu0_ROB] entry: 265 instr_id: 6178521 fetch_issued: true fetch_completed: true scheduled: true executed: true completed: true num_reg_dependent: 0 num_mem_ops: 0 event: 4948780
[cpu0_ROB] entry: 266 instr_id: 6178522 fetch_issued: true fetch_completed: true scheduled: true executed: true completed: true num_reg_dependent: 0 num_mem_ops: 0 event: 4948780
[cpu0_ROB] entry: 267 instr_id: 6178523 fetch_issued: true fetch_completed: true scheduled: true executed: true completed: true num_reg_dependent: 0 num_mem_ops: 0 event: 4948781
[cpu0_ROB] entry: 268 instr_id: 6178524 fetch_issued: true fetch_completed: true scheduled: true executed: true completed: true num_reg_dependent: 0 num_mem_ops: 0 event: 4948781
[cpu0_ROB] entry: 269 instr_id: 6178525 fetch_issued: true fetch_completed: true scheduled: true executed: true completed: true num_reg_dependent: 0 num_mem_ops: 0 event: 4948781
[cpu0_ROB] entry: 270 instr_id: 6178526 fetch_issued: true fetch_completed: true scheduled: true executed: true completed: true num_reg_dependent: 0 num_mem_ops: 0 event: 4948781
[cpu0_ROB] entry: 271 instr_id: 6178527 fetch_issued: true fetch_completed: true scheduled: true executed: true completed: true num_reg_dependent: 0 num_mem_ops: 0 event: 4948782
[cpu0_ROB] entry: 272 instr_id: 6178528 fetch_issued: true fetch_completed: true scheduled: true executed: true completed: true num_reg_dependent: 0 num_mem_ops: 0 event: 4948782
[cpu0_ROB] entry: 273 instr_id: 6178529 fetch_issued: true fetch_completed: true scheduled: true executed: true completed: true num_reg_dependent: 0 num_mem_ops: 0 event: 4948782
[cpu0_ROB] entry: 274 instr_id: 6178530 fetch_issued: true fetch_completed: true scheduled: true executed: true completed: true num_reg_dependent: 0 num_mem_ops: 0 event: 4948782
[cpu0_ROB] entry: 275 instr_id: 6178531 fetch_issued: true fetch_completed: true scheduled: true executed: true completed: true num_reg_dependent: 0 num_mem_ops: 0 event: 4948783
[cpu0_ROB] entry: 276 instr_id: 6178532 fetch_issued: true fetch_completed: true scheduled: true executed: true completed: true num_reg_dependent: 0 num_mem_ops: 0 event: 4948783
[cpu0_ROB] entry: 277 instr_id: 6178533 fetch_issued: true fetch_completed: true scheduled: true executed: true completed: true num_reg_dependent: 0 num_mem_ops: 0 event: 4948783
[cpu0_ROB] entry: 278 instr_id: 6178534 fetch_issued: true fetch_completed: true scheduled: true executed: true completed: true num_reg_dependent: 0 num_mem_ops: 0 event: 4948783
[cpu0_ROB] entry: 279 instr_id: 6178535 fetch_issued: true fetch_completed: true scheduled: true executed: true completed: true num_reg_dependent: 0 num_mem_ops: 0 event: 4948784
[cpu0_ROB] entry: 280 instr_id: 6178536 fetch_issued: true fetch_completed: true scheduled: true executed: true completed: true num_reg_dependent: 0 num_mem_ops: 0 event: 4948784
[cpu0_ROB] entry: 281 instr_id: 6178537 fetch_issued: true fetch_completed: true scheduled: true executed: true completed: true num_reg_dependent: 0 num_mem_ops: 0 event: 4948784
[cpu0_ROB] entry: 282 instr_id: 6178538 fetch_issued: true fetch_completed: true scheduled: true executed: true completed: true num_reg_dependent: 0 num_mem_ops: 0 event: 4948784
[cpu0_ROB] entry: 283 instr_id: 6178539 fetch_issued: true fetch_completed: true scheduled: true executed: true completed: true num_reg_dependent: 0 num_mem_ops: 0 event: 4948785
[cpu0_ROB] entry: 284 instr_id: 6178540 fetch_issued: true fetch_completed: true scheduled: true executed: true completed: true num_reg_dependent: 0 num_mem_ops: 0 event: 4948785
[cpu0_ROB] entry: 285 instr_id: 6178541 fetch_issued: true fetch_completed: true scheduled: true executed: true completed: true num_reg_dependent: 0 num_mem_ops: 0 event: 4948785
[cpu0_ROB] entry: 286 instr_id: 6178542 fetch_issued: true fetch_completed: true scheduled: true executed: true completed: true num_reg_dependent: 0 num_mem_ops: 0 event: 4948785
[cpu0_ROB] entry: 287 instr_id: 6178543 fetch_issued: true fetch_completed: true scheduled: true executed: true completed: true num_reg_dependent: 0 num_mem_ops: 0 event: 4948786
[cpu0_ROB] entry: 288 instr_id: 6178544 fetch_issued: true fetch_completed: true scheduled: true executed: true completed: true num_reg_dependent: 0 num_mem_ops: 0 event: 4948786
[cpu0_ROB] entry: 289 instr_id: 6178545 fetch_issued: true fetch_completed: true scheduled: true executed: true completed: true num_reg_dependent: 0 num_mem_ops: 0 event: 4948786
[cpu0_ROB] entry: 290 instr_id: 6178546 fetch_issued: true fetch_completed: true scheduled: true executed: true completed: true num_reg_dependent: 0 num_mem_ops: 0 event: 4948786
[cpu0_ROB] entry: 291 instr_id: 6178547 fetch_issued: true fetch_completed: true scheduled: true executed: true completed: true num_reg_dependent: 0 num_mem_ops: 0 event: 4948787
[cpu0_ROB] entry: 292 instr_id: 6178548 fetch_issued: true fetch_completed: true scheduled: true executed: true completed: true num_reg_dependent: 0 num_mem_ops: 0 event: 4948787
[cpu0_ROB] entry: 293 instr_id: 6178549 fetch_issued: true fetch_completed: true scheduled: true executed: true completed: true num_reg_dependent: 0 num_mem_ops: 0 event: 4948787
[cpu0_ROB] entry: 294 instr_id: 6178550 fetch_issued: true fetch_completed: true scheduled: true executed: true completed: true num_reg_dependent: 0 num_mem_ops: 0 event: 4948787
[cpu0_ROB] entry: 295 instr_id: 6178551 fetch_issued: true fetch_completed: true scheduled: true executed: true completed: true num_reg_dependent: 0 num_mem_ops: 0 event: 4948788
[cpu0_ROB] entry: 296 instr_id: 6178552 fetch_issued: true fetch_completed: true scheduled: true executed: true completed: true num_reg_dependent: 0 num_mem_ops: 0 event: 4948788
[cpu0_ROB] entry: 297 instr_id: 6178553 fetch_issued: true fetch_completed: true scheduled: true executed: true completed: true num_reg_dependent: 0 num_mem_ops: 0 event: 4948788
[cpu0_ROB] entry: 298 instr_id: 6178554 fetch_issued: true fetch_completed: true scheduled: true executed: true completed: true num_reg_dependent: 0 num_mem_ops: 0 event: 4948788
[cpu0_ROB] entry: 299 instr_id: 6178555 fetch_issued: true fetch_completed: true scheduled: true executed: true completed: true num_reg_dependent: 0 num_mem_ops: 0 event: 4948789
[cpu0_ROB] entry: 300 instr_id: 6178556 fetch_issued: true fetch_completed: true scheduled: true executed: true completed: true num_reg_dependent: 0 num_mem_ops: 0 event: 4948789
[cpu0_ROB] entry: 301 instr_id: 6178557 fetch_issued: true fetch_completed: true scheduled: true executed: true completed: true num_reg_dependent: 0 num_mem_ops: 0 event: 4948789
[cpu0_ROB] entry: 302 instr_id: 6178558 fetch_issued: true fetch_completed: true scheduled: true executed: true completed: true num_reg_dependent: 0 num_mem_ops: 0 event: 4948789
[cpu0_ROB] entry: 303 instr_id: 6178559 fetch_issued: true fetch_completed: true scheduled: true executed: true completed: true num_reg_dependent: 0 num_mem_ops: 0 event: 4948790
[cpu0_ROB] entry: 304 instr_id: 6178560 fetch_issued: true fetch_completed: true scheduled: true executed: true completed: true num_reg_dependent: 0 num_mem_ops: 0 event: 4948790
[cpu0_ROB] entry: 305 instr_id: 6178561 fetch_issued: true fetch_completed: true scheduled: true executed: true completed: true num_reg_dependent: 0 num_mem_ops: 0 event: 4948790
[cpu0_ROB] entry: 306 instr_id: 6178562 fetch_issued: true fetch_completed: true scheduled: true executed: true completed: true num_reg_dependent: 0 num_mem_ops: 0 event: 4948790
[cpu0_ROB] entry: 307 instr_id: 6178563 fetch_issued: true fetch_completed: true scheduled: true executed: true completed: true num_reg_dependent: 0 num_mem_ops: 0 event: 4948791
[cpu0_ROB] entry: 308 instr_id: 6178564 fetch_issued: true fetch_completed: true scheduled: true executed: true completed: true num_reg_dependent: 0 num_mem_ops: 0 event: 4948791
[cpu0_ROB] entry: 309 instr_id: 6178565 fetch_issued: true fetch_completed: true scheduled: true executed: true completed: true num_reg_dependent: 0 num_mem_ops: 0 event: 4948791
[cpu0_ROB] entry: 310 instr_id: 6178566 fetch_issued: true fetch_completed: true scheduled: true executed: true completed: true num_reg_dependent: 0 num_mem_ops: 0 event: 4948791
[cpu0_ROB] entry: 311 instr_id: 6178567 fetch_issued: true fetch_completed: true scheduled: true executed: true completed: true num_reg_dependent: 0 num_mem_ops: 0 event: 4948792
[cpu0_ROB] entry: 312 instr_id: 6178568 fetch_issued: true fetch_completed: true scheduled: true executed: true completed: true num_reg_dependent: 0 num_mem_ops: 0 event: 4948792
[cpu0_ROB] entry: 313 instr_id: 6178569 fetch_issued: true fetch_completed: true scheduled: true executed: true completed: true num_reg_dependent: 0 num_mem_ops: 0 event: 4948792
[cpu0_ROB] entry: 314 instr_id: 6178570 fetch_issued: true fetch_completed: true scheduled: true executed: true completed: true num_reg_dependent: 0 num_mem_ops: 0 event: 4948792
[cpu0_ROB] entry: 315 instr_id: 6178571 fetch_issued: true fetch_completed: true scheduled: true executed: true completed: true num_reg_dependent: 0 num_mem_ops: 0 event: 4948793
[cpu0_ROB] entry: 316 instr_id: 6178572 fetch_issued: true fetch_completed: true scheduled: true executed: true completed: true num_reg_dependent: 0 num_mem_ops: 0 event: 4948793
[cpu0_ROB] entry: 317 instr_id: 6178573 fetch_issued: true fetch_completed: true scheduled: true executed: true completed: true num_reg_dependent: 0 num_mem_ops: 0 event: 4948793
[...]
Phys reg:  33	 Arch reg:   0	 Producer: 0	 Valid: false	 Busy: false
Phys reg:  34	 Arch reg:   0	 Producer: 0	 Valid: false	 Busy: false
Phys reg:  35	 Arch reg:   0	 Producer: 0	 Valid: false	 Busy: false
Phys reg:  36	 Arch reg:   0	 Producer: 0	 Valid: false	 Busy: false
Phys reg:  37	 Arch reg:   0	 Producer: 0	 Valid: false	 Busy: false
Phys reg:  38	 Arch reg:   0	 Producer: 0	 Valid: false	 Busy: false
Phys reg:  39	 Arch reg:   0	 Producer: 0	 Valid: false	 Busy: false
Phys reg:  40	 Arch reg:   0	 Producer: 0	 Valid: false	 Busy: false
Phys reg:  41	 Arch reg:   0	 Producer: 0	 Valid: false	 Busy: false
Phys reg:  42	 Arch reg:   0	 Producer: 0	 Valid: false	 Busy: false
Phys reg:  43	 Arch reg:   0	 Producer: 0	 Valid: false	 Busy: false
Phys reg:  44	 Arch reg:   0	 Producer: 0	 Valid: false	 Busy: false
Phys reg:  45	 Arch reg:   0	 Producer: 0	 Valid: false	 Busy: false
Phys reg:  46	 Arch reg:   0	 Producer: 0	 Valid: false	 Busy: false
Phys reg:  47	 Arch reg:   0	 Producer: 0	 Valid: false	 Busy: false
Phys reg:  48	 Arch reg:   0	 Producer: 0	 Valid: false	 Busy: false
Phys reg:  49	 Arch reg:   0	 Producer: 0	 Valid: false	 Busy: false
Phys reg:  50	 Arch reg:   0	 Producer: 0	 Valid: false	 Busy: false
Phys reg:  51	 Arch reg:   0	 Producer: 0	 Valid: false	 Busy: false
Phys reg:  52	 Arch reg:   0	 Producer: 0	 Valid: false	 Busy: false
Phys reg:  53	 Arch reg:   0	 Producer: 0	 Valid: false	 Busy: false
Phys reg:  54	 Arch reg:   0	 Producer: 0	 Valid: false	 Busy: false
Phys reg:  55	 Arch reg:   0	 Producer: 0	 Valid: false	 Busy: false
Phys reg:  56	 Arch reg:   0	 Producer: 0	 Valid: false	 Busy: false
Phys reg:  57	 Arch reg:   0	 Producer: 0	 Valid: false	 Busy: false
Phys reg:  58	 Arch reg:   0	 Producer: 0	 Valid: false	 Busy: false
Phys reg:  59	 Arch reg:   0	 Producer: 0	 Valid: false	 Busy: false
Phys reg:  60	 Arch reg:   0	 Producer: 0	 Valid: false	 Busy: false
Phys reg:  61	 Arch reg:   0	 Producer: 0	 Valid: false	 Busy: false
Phys reg:  62	 Arch reg:   0	 Producer: 0	 Valid: false	 Busy: false
Phys reg:  63	 Arch reg:   0	 Producer: 0	 Valid: false	 Busy: false
Phys reg:  64	 Arch reg:   0	 Producer: 0	 Valid: false	 Busy: false
Phys reg:  65	 Arch reg:   0	 Producer: 0	 Valid: false	 Busy: false
Phys reg:  66	 Arch reg:   0	 Producer: 0	 Valid: false	 Busy: false
Phys reg:  67	 Arch reg:   0	 Producer: 0	 Valid: false	 Busy: false
Phys reg:  68	 Arch reg:   0	 Producer: 0	 Valid: false	 Busy: false
Phys reg:  69	 Arch reg:   0	 Producer: 0	 Valid: false	 Busy: false
Phys reg:  70	 Arch reg:   0	 Producer: 0	 Valid: false	 Busy: false
Phys reg:  71	 Arch reg:   0	 Producer: 0	 Valid: false	 Busy: false
Phys reg:  72	 Arch reg:   0	 Producer: 0	 Valid: false	 Busy: false
Phys reg:  73	 Arch reg:   0	 Producer: 0	 Valid: false	 Busy: false
Phys reg:  74	 Arch reg:   0	 Producer: 0	 Valid: false	 Busy: false
Phys reg:  75	 Arch reg:   0	 Producer: 0	 Valid: false	 Busy: false
Phys reg:  76	 Arch reg:   0	 Producer: 0	 Valid: false	 Busy: false
Phys reg:  77	 Arch reg:   0	 Producer: 0	 Valid: false	 Busy: false
Phys reg:  78	 Arch reg:   0	 Producer: 0	 Valid: false	 Busy: false
Phys reg:  79	 Arch reg:   0	 Producer: 0	 Valid: false	 Busy: false
Phys reg:  80	 Arch reg:   0	 Producer: 0	 Valid: false	 Busy: false
Phys reg:  81	 Arch reg:   0	 Producer: 0	 Valid: false	 Busy: false
Phys reg:  82	 Arch reg:   0	 Producer: 0	 Valid: false	 Busy: false
Phys reg:  83	 Arch reg:   0	 Producer: 0	 Valid: false	 Busy: false
Phys reg:  84	 Arch reg:   0	 Producer: 0	 Valid: false	 Busy: false
Phys reg:  85	 Arch reg:   0	 Producer: 0	 Valid: false	 Busy: false
Phys reg:  86	 Arch reg:   0	 Producer: 0	 Valid: false	 Busy: false
Phys reg:  87	 Arch reg:   0	 Producer: 0	 Valid: false	 Busy: false
Phys reg:  88	 Arch reg:   0	 Producer: 0	 Valid: false	 Busy: false
Phys reg:  89	 Arch reg:   0	 Producer: 0	 Valid: false	 Busy: false
Phys reg:  90	 Arch reg:   0	 Producer: 0	 Valid: false	 Busy: false
Phys reg:  91	 Arch reg:   0	 Producer: 0	 Valid: false	 Busy: false
Phys reg:  92	 Arch reg:   0	 Producer: 0	 Valid: false	 Busy: false
Phys reg:  93	 Arch reg:   0	 Producer: 0	 Valid: false	 Busy: false
Phys reg:  94	 Arch reg:   0	 Producer: 0	 Valid: false	 Busy: false
Phys reg:  95	 Arch reg:   0	 Producer: 0	 Valid: false	 Busy: false
Phys reg:  96	 Arch reg:   0	 Producer: 0	 Valid: false	 Busy: false
Phys reg:  97	 Arch reg:   0	 Producer: 0	 Valid: false	 Busy: false
Phys reg:  98	 Arch reg:   0	 Producer: 0	 Valid: false	 Busy: false
Phys reg:  99	 Arch reg:   0	 Producer: 0	 Valid: false	 Busy: false
Phys reg: 100	 Arch reg:   0	 Producer: 0	 Valid: false	 Busy: false
Phys reg: 101	 Arch reg:   0	 Producer: 0	 Valid: false	 Busy: false
Phys reg: 102	 Arch reg:   0	 Producer: 0	 Valid: false	 Busy: false
Phys reg: 103	 Arch reg:   0	 Producer: 0	 Valid: false	 Busy: false
Phys reg: 104	 Arch reg:   0	 Producer: 0	 Valid: false	 Busy: false
Phys reg: 105	 Arch reg:   0	 Producer: 0	 Valid: false	 Busy: false
Phys reg: 106	 Arch reg:   0	 Producer: 0	 Valid: false	 Busy: false
Phys reg: 107	 Arch reg:   0	 Producer: 0	 Valid: false	 Busy: false
Phys reg: 108	 Arch reg:   0	 Producer: 0	 Valid: false	 Busy: false
Phys reg: 109	 Arch reg:   0	 Producer: 0	 Valid: false	 Busy: false
Phys reg: 110	 Arch reg:   0	 Producer: 0	 Valid: false	 Busy: false
Phys reg: 111	 Arch reg:   0	 Producer: 0	 Valid: false	 Busy: false
Phys reg: 112	 Arch reg:   0	 Producer: 0	 Valid: false	 Busy: false
Phys reg: 113	 Arch reg:   0	 Producer: 0	 Valid: false	 Busy: false
Phys reg: 114	 Arch reg:   0	 Producer: 0	 Valid: false	 Busy: false
Phys reg: 115	 Arch reg:   0	 Producer: 0	 Valid: false	 Busy: false
Phys reg: 116	 Arch reg:   0	 Producer: 0	 Valid: false	 Busy: false
Phys reg: 117	 Arch reg:   0	 Producer: 0	 Valid: false	 Busy: false
Phys reg: 118	 Arch reg:   0	 Producer: 0	 Valid: false	 Busy: false
Phys reg: 119	 Arch reg:   0	 Producer: 0	 Valid: false	 Busy: false
Phys reg: 120	 Arch reg:   0	 Producer: 0	 Valid: false	 Busy: false
Phys reg: 121	 Arch reg:   0	 Producer: 0	 Valid: false	 Busy: false
Phys reg: 122	 Arch reg:   0	 Producer: 0	 Valid: false	 Busy: false
Phys reg: 123	 Arch reg:   0	 Producer: 0	 Valid: false	 Busy: false
Phys reg: 124	 Arch reg:   0	 Producer: 0	 Valid: false	 Busy: false
Phys reg: 125	 Arch reg:   0	 Producer: 0	 Valid: false	 Busy: false
Phys reg: 126	 Arch reg:   0	 Producer: 0	 Valid: false	 Busy: false
Phys reg: 127	 Arch reg:   0	 Producer: 0	 Valid: false	 Busy: false

[cpu0_LQ] entry:   0 empty
[cpu0_LQ] entry:   1 empty
[cpu0_LQ] entry:   2 empty
[cpu0_LQ] entry:   3 empty
[cpu0_LQ] entry:   4 empty
[cpu0_LQ] entry:   5 empty
[cpu0_LQ] entry:   6 empty
[cpu0_LQ] entry:   7 empty
[cpu0_LQ] entry:   8 empty
[cpu0_LQ] entry:   9 empty
[cpu0_LQ] entry:  10 empty
[cpu0_LQ] entry:  11 empty
[cpu0_LQ] entry:  12 empty
[cpu0_LQ] entry:  13 empty
[cpu0_LQ] entry:  14 empty
[cpu0_LQ] entry:  15 empty
[cpu0_LQ] entry:  16 empty
[cpu0_LQ] entry:  17 empty
[cpu0_LQ] entry:  18 empty
[cpu0_LQ] entry:  19 empty
[cpu0_LQ] entry:  20 empty
[cpu0_LQ] entry:  21 empty
[cpu0_LQ] entry:  22 empty
[cpu0_LQ] entry:  23 empty
[cpu0_LQ] entry:  24 empty
[cpu0_LQ] entry:  25 empty
[cpu0_LQ] entry:  26 empty
[cpu0_LQ] entry:  27 empty
[cpu0_LQ] entry:  28 empty
[cpu0_LQ] entry:  29 empty
[cpu0_LQ] entry:  30 empty
[cpu0_LQ] entry:  31 empty
[cpu0_LQ] entry:  32 empty
[cpu0_LQ] entry:  33 empty
[cpu0_LQ] entry:  34 empty
[cpu0_LQ] entry:  35 empty
[cpu0_LQ] entry:  36 empty
[cpu0_LQ] entry:  37 empty
[cpu0_LQ] entry:  38 empty
[cpu0_LQ] entry:  39 empty
[cpu0_LQ] entry:  40 empty
[cpu0_LQ] entry:  41 empty
[cpu0_LQ] entry:  42 empty
[cpu0_LQ] entry:  43 empty
[cpu0_LQ] entry:  44 empty
[cpu0_LQ] entry:  45 empty
[cpu0_LQ] entry:  46 empty
[cpu0_LQ] entry:  47 empty
[cpu0_LQ] entry:  48 empty
[cpu0_LQ] entry:  49 empty
[cpu0_LQ] entry:  50 empty
[cpu0_LQ] entry:  51 empty
[cpu0_LQ] entry:  52 empty
[cpu0_LQ] entry:  53 empty
[cpu0_LQ] entry:  54 empty
[cpu0_LQ] entry:  55 empty
[cpu0_LQ] entry:  56 empty
[cpu0_LQ] entry:  57 empty
[cpu0_LQ] entry:  58 empty
[cpu0_LQ] entry:  59 empty
[cpu0_LQ] entry:  60 empty
[cpu0_LQ] entry:  61 instr_id: 6178256 address: 0xa7ffb7 fetch_issued: true event_cycle: 4948633 waits on -
[cpu0_LQ] entry:  62 empty
[cpu0_LQ] entry:  63 empty
[cpu0_LQ] entry:  64 empty
[cpu0_LQ] entry:  65 empty
[cpu0_LQ] entry:  66 empty
[cpu0_LQ] entry:  67 empty
[cpu0_LQ] entry:  68 empty
[cpu0_LQ] entry:  69 empty
[cpu0_LQ] entry:  70 empty
[cpu0_LQ] entry:  71 empty
[cpu0_LQ] entry:  72 empty
[cpu0_LQ] entry:  73 empty
[cpu0_LQ] entry:  74 empty
[cpu0_LQ] entry:  75 empty
[cpu0_LQ] entry:  76 empty
[cpu0_LQ] entry:  77 empty
[cpu0_LQ] entry:  78 empty
[cpu0_LQ] entry:  79 empty
[cpu0_LQ] entry:  80 empty
[cpu0_LQ] entry:  81 empty
[cpu0_LQ] entry:  82 empty
[cpu0_LQ] entry:  83 empty
[cpu0_LQ] entry:  84 empty
[cpu0_LQ] entry:  85 empty
[cpu0_LQ] entry:  86 empty
[cpu0_LQ] entry:  87 empty
[cpu0_LQ] entry:  88 empty
[cpu0_LQ] entry:  89 empty
[cpu0_LQ] entry:  90 empty
[cpu0_LQ] entry:  91 empty
[cpu0_LQ] entry:  92 empty
[cpu0_LQ] entry:  93 empty
[cpu0_LQ] entry:  94 empty
[cpu0_LQ] entry:  95 empty
[cpu0_LQ] entry:  96 empty
[cpu0_LQ] entry:  97 empty
[cpu0_LQ] entry:  98 empty
[cpu0_LQ] entry:  99 empty
[cpu0_LQ] entry: 100 empty
[cpu0_LQ] entry: 101 empty
[cpu0_LQ] entry: 102 empty
[cpu0_LQ] entry: 103 empty
[cpu0_LQ] entry: 104 empty
[cpu0_LQ] entry: 105 empty
[cpu0_LQ] entry: 106 empty
[cpu0_LQ] entry: 107 empty
[cpu0_LQ] entry: 108 empty
[cpu0_LQ] entry: 109 empty
[cpu0_LQ] entry: 110 empty
[cpu0_LQ] entry: 111 empty
[cpu0_LQ] entry: 112 empty
[cpu0_LQ] entry: 113 empty
[cpu0_LQ] entry: 114 empty
[cpu0_LQ] entry: 115 empty
[cpu0_LQ] entry: 116 empty
[cpu0_LQ] entry: 117 empty
[cpu0_LQ] entry: 118 empty
[cpu0_LQ] entry: 119 empty
[cpu0_LQ] entry: 120 empty
[cpu0_LQ] entry: 121 empty
[cpu0_LQ] entry: 122 empty
[cpu0_LQ] entry: 123 empty
[cpu0_LQ] entry: 124 empty
[cpu0_LQ] entry: 125 empty
[cpu0_LQ] entry: 126 empty
[cpu0_LQ] entry: 127 empty

[cpu0_SQ] entry:   0 instr_id: 6178279 address: 0x7ffe8f1555c8 fetch_issued: true event_cycle: 4948683 LQ waiting: []
[cpu0_SQ] entry:   1 instr_id: 6178288 address: 0x7ffe8f1555a8 fetch_issued: true event_cycle: 4948685 LQ waiting: []
[cpu0_SQ] entry:   2 instr_id: 6178289 address: 0x7ffe8f155590 fetch_issued: true event_cycle: 4948686 LQ waiting: []
[cpu0_SQ] entry:   3 instr_id: 6178290 address: 0x7ffe8f155578 fetch_issued: true event_cycle: 4948686 LQ waiting: []
[cpu0_SQ] entry:   4 instr_id: 6178292 address: 0x7ffe8f155580 fetch_issued: true event_cycle: 4948687 LQ waiting: [18446744073709551615]
[cpu0_SQ] entry:   5 instr_id: 6178293 address: 0x7ffe8f155588 fetch_issued: true event_cycle: 4948687 LQ waiting: [18446744073709551615]
[cpu0_SQ] entry:   6 instr_id: 6178294 address: 0x7ffe8f155598 fetch_issued: true event_cycle: 4948688 LQ waiting: [18446744073709551615]
[cpu0_SQ] entry:   7 instr_id: 6178295 address: 0x7ffe8f1555a0 fetch_issued: true event_cycle: 4948688 LQ waiting: [18446744073709551615]
[cpu0_SQ] entry:   8 instr_id: 6178326 address: 0x4fa0ea0 fetch_issued: true event_cycle: 4948705 LQ waiting: []
[cpu0_SQ] entry:   9 instr_id: 6178328 address: 0x4fa0e88 fetch_issued: true event_cycle: 4948705 LQ waiting: []
[cpu0_SQ] entry:  10 instr_id: 6178336 address: 0x7ffe8f1555c0 fetch_issued: true event_cycle: 4948707 LQ waiting: []
[cpu0_SQ] entry:  11 instr_id: 6178337 address: 0x7ffe8f1555a8 fetch_issued: true event_cycle: 4948707 LQ waiting: []
[cpu0_SQ] entry:  12 instr_id: 6178338 address: 0x7ffe8f155598 fetch_issued: true event_cycle: 4948708 LQ waiting: []
[cpu0_SQ] entry:  13 instr_id: 6178339 address: 0x7ffe8f1555a0 fetch_issued: true event_cycle: 4948708 LQ waiting: []
[cpu0_SQ] entry:  14 instr_id: 6178369 address: 0x9ce3b8 fetch_issued: true event_cycle: 4948715 LQ waiting: []
[cpu0_SQ] entry:  15 instr_id: 6178370 address: 0x9ce3b0 fetch_issued: true event_cycle: 4948716 LQ waiting: []
[cpu0_SQ] entry:  16 instr_id: 6178373 address: 0x2f081b0 fetch_issued: true event_cycle: 4948716 LQ waiting: []
[cpu0_SQ] entry:  17 instr_id: 6178374 address: 0x2f081b8 fetch_issued: true event_cycle: 4948717 LQ waiting: []
[cpu0_SQ] entry:  18 instr_id: 6178381 address: 0x4e6fc50 fetch_issued: true event_cycle: 4948718 LQ waiting: []
[cpu0_SQ] entry:  19 instr_id: 6178386 address: 0x7ffe8f1555a8 fetch_issued: true event_cycle: 4948724 LQ waiting: []
[cpu0_SQ] entry:  20 instr_id: 6178387 address: 0x7ffe8f155598 fetch_issued: true event_cycle: 4948725 LQ waiting: []
[cpu0_SQ] entry:  21 instr_id: 6178388 address: 0x7ffe8f1555a0 fetch_issued: true event_cycle: 4948725 LQ waiting: []
[cpu0_SQ] entry:  22 instr_id: 6178418 address: 0x9ce3b8 fetch_issued: true event_cycle: 4948732 LQ waiting: []
[cpu0_SQ] entry:  23 instr_id: 6178419 address: 0x9ce3b0 fetch_issued: true event_cycle: 4948733 LQ waiting: []
[cpu0_SQ] entry:  24 instr_id: 6178422 address: 0x2f081c0 fetch_issued: true event_cycle: 4948733 LQ waiting: []
[cpu0_SQ] entry:  25 instr_id: 6178423 address: 0x2f081c8 fetch_issued: true event_cycle: 4948734 LQ waiting: []
[cpu0_SQ] entry:  26 instr_id: 6178425 address: 0x2f081d0 fetch_issued: true event_cycle: 4948734 LQ waiting: []
[cpu0_SQ] entry:  27 instr_id: 6178431 address: 0x2f08170 fetch_issued: true event_cycle: 4948736 LQ waiting: []
[cpu0_SQ] entry:  28 instr_id: 6178448 address: 0x9ce368 fetch_issued: true event_cycle: 4948762 LQ waiting: []
[cpu0_SQ] entry:  29 instr_id: 6178464 address: 0x7ffe8f156368 fetch_issued: true event_cycle: 4948766 LQ waiting: []
[cpu0_SQ] entry:  30 instr_id: 6178465 address: 0x7ffe8f156360 fetch_issued: true event_cycle: 4948766 LQ waiting: []
[cpu0_SQ] entry:  31 instr_id: 6178467 address: 0x7ffe8f156358 fetch_issued: true event_cycle: 4948767 LQ waiting: []
[cpu0_SQ] entry:  32 instr_id: 6178469 address: 0x9ce368 fetch_issued: true event_cycle: 4948767 LQ waiting: []
[cpu0_SQ] entry:  33 instr_id: 6178488 address: 0x7ffe8f156348 fetch_issued: true event_cycle: 4948772 LQ waiting: []
[cpu0_SQ] entry:  34 instr_id: 6178489 address: 0x7ffe8f156340 fetch_issued: true event_cycle: 4948772 LQ waiting: []
[cpu0_SQ] entry:  35 instr_id: 6178490 address: 0x7ffe8f156338 fetch_issued: true event_cycle: 4948773 LQ waiting: []
[cpu0_SQ] entry:  36 instr_id: 6178491 address: 0x7ffe8f156330 fetch_issued: true event_cycle: 4948773 LQ waiting: []
[cpu0_SQ] entry:  37 instr_id: 6178493 address: 0x7ffe8f156328 fetch_issued: true event_cycle: 4948774 LQ waiting: []
[cpu0_SQ] entry:  38 instr_id: 6178494 address: 0x7ffe8f156320 fetch_issued: true event_cycle: 4948774 LQ waiting: []
[cpu0_SQ] entry:  39 instr_id: 6178495 address: 0x7ffe8f156318 fetch_issued: true event_cycle: 4948775 LQ waiting: []
[cpu0_SQ] entry:  40 instr_id: 6178505 address: 0x7ffe8f1555d0 fetch_issued: true event_cycle: 4948776 LQ waiting: [18446744073709551615]
[cpu0_SQ] entry:  41 instr_id: 6178507 address: 0x7ffe8f1555d8 fetch_issued: true event_cycle: 4948777 LQ waiting: [18446744073709551615]
[cpu0_SQ] entry:  42 instr_id: 6178523 address: 0x7ffe8f1555a8 fetch_issued: true event_cycle: 4948781 LQ waiting: []
[cpu0_SQ] entry:  43 instr_id: 6178524 address: 0x7ffe8f155578 fetch_issued: true event_cycle: 4948781 LQ waiting: []
[cpu0_SQ] entry:  44 instr_id: 6178525 address: 0x7ffe8f155588 fetch_issued: true event_cycle: 4948782 LQ waiting: []
[cpu0_SQ] entry:  45 instr_id: 6178527 address: 0x7ffe8f155590 fetch_issued: true event_cycle: 4948782 LQ waiting: []
[cpu0_SQ] entry:  46 instr_id: 6178528 address: 0x7ffe8f155580 fetch_issued: true event_cycle: 4948783 LQ waiting: []
[cpu0_SQ] entry:  47 instr_id: 6178530 address: 0x7ffe8f155598 fetch_issued: true event_cycle: 4948783 LQ waiting: []
[cpu0_SQ] entry:  48 instr_id: 6178531 address: 0x7ffe8f1555a0 fetch_issued: true event_cycle: 4948784 LQ waiting: []
[cpu0_SQ] entry:  49 instr_id: 6178546 address: 0x7ffe8f155568 fetch_issued: true event_cycle: 4948786 LQ waiting: []
[cpu0_SQ] entry:  50 instr_id: 6178547 address: 0x7ffe8f155560 fetch_issued: true event_cycle: 4948787 LQ waiting: []
[cpu0_SQ] entry:  51 instr_id: 6178549 address: 0x7ffe8f155558 fetch_issued: true event_cycle: 4948787 LQ waiting: []
[cpu0_SQ] entry:  52 instr_id: 6178550 address: 0x7ffe8f155550 fetch_issued: true event_cycle: 4948788 LQ waiting: []
[cpu0_SQ] entry:  53 instr_id: 6178551 address: 0x7ffe8f155548 fetch_issued: true event_cycle: 4948788 LQ waiting: []
[cpu0_SQ] entry:  54 instr_id: 6178554 address: 0x7ffe8f155540 fetch_issued: true event_cycle: 4948789 LQ waiting: []
[cpu0_SQ] entry:  55 instr_id: 6178555 address: 0x7ffe8f155538 fetch_issued: true event_cycle: 4948789 LQ waiting: []
[cpu0_SQ] entry:  56 instr_id: 6178575 address: 0x7ffe8f15552c fetch_issued: true event_cycle: 4948794 LQ waiting: [6178575]
[cpu0_SQ] entry:  57 instr_id: 6178577 address: 0x7ffe8f155530 fetch_issued: true event_cycle: 4948794 LQ waiting: [6178577]
[cpu0_SQ] entry:  58 instr_id: 6178589 address: 0x7ffe8f155518 fetch_issued: true event_cycle: 4948797 LQ waiting: []
[cpu0_SQ] entry:  59 instr_id: 6178590 address: 0x7ffe8f155510 fetch_issued: true event_cycle: 4948797 LQ waiting: []
[cpu0_SQ] entry:  60 instr_id: 6178592 address: 0x7ffe8f155508 fetch_issued: true event_cycle: 4948798 LQ waiting: []
[cpu0_SQ] entry:  61 instr_id: 6178593 address: 0x7ffe8f155500 fetch_issued: true event_cycle: 4948798 LQ waiting: []
[cpu0_SQ] entry:  62 instr_id: 6178594 address: 0x7ffe8f1554f8 fetch_issued: true event_cycle: 4948799 LQ waiting: []
[cpu0_SQ] entry:  63 instr_id: 6178597 address: 0x7ffe8f1554f0 fetch_issued: true event_cycle: 4948799 LQ waiting: []
[cpu0_SQ] entry:  64 instr_id: 6178598 address: 0x7ffe8f1554e8 fetch_issued: true event_cycle: 4948800 LQ waiting: []

[cpu0_STLB_MSHR] entry:   0 instr_id: 6178256 address: 0xa7ffb7 v_addr: 0xa7ffb7 type: LOAD ready: true

cpu0_STLB_tags empty

cpu0_STLB_translation empty

cpu0_STLB_RQ empty

cpu0_STLB_WQ empty

cpu0_STLB_PQ empty

cpu0_STLB_RQ empty

cpu0_STLB_WQ empty

cpu0_STLB_PQ empty

cpu0_STLB_RQ empty

cpu0_STLB_WQ empty

cpu0_STLB_PQ empty

cpu0_L2C_MSHR empty

cpu0_L2C_tags empty

cpu0_L2C_translation empty

cpu0_L2C_RQ empty

cpu0_L2C_WQ empty

cpu0_L2C_PQ empty

cpu0_L2C_RQ empty

cpu0_L2C_WQ empty

cpu0_L2C_PQ empty

cpu0_L1I_MSHR empty

cpu0_L1I_tags empty

cpu0_L1I_translation empty

cpu0_L1I_RQ empty

cpu0_L1I_WQ empty

cpu0_L1I_PQ empty

cpu0_L1D_MSHR empty

cpu0_L1D_tags empty

[cpu0_L1D_translation] entry:   0 instr_id: 6178256 address: 0xa7ffb7 v_addr: 0xa7ffb7 is_translated: false translate_issued: true event_cycle: 4948810

cpu0_L1D_RQ empty

cpu0_L1D_WQ empty

cpu0_L1D_PQ empty

cpu0_L1D_RQ empty

cpu0_L1D_WQ empty

cpu0_L1D_PQ empty

cpu0_ITLB_MSHR empty

cpu0_ITLB_tags empty

cpu0_ITLB_translation empty

cpu0_ITLB_RQ empty

cpu0_ITLB_WQ empty

cpu0_ITLB_PQ empty

[cpu0_DTLB_MSHR] entry:   0 instr_id: 6178256 address: 0xa7ffb7 v_addr: 0xa7ffb7 type: LOAD ready: false

cpu0_DTLB_tags empty

cpu0_DTLB_translation empty

cpu0_DTLB_RQ empty

cpu0_DTLB_WQ empty

cpu0_DTLB_PQ empty

LLC_MSHR empty

LLC_tags empty

LLC_translation empty

LLC_RQ empty

LLC_WQ empty

LLC_PQ empty

cpu0_PTW_MSHR empty

DRAM Channel 0
[RQ] entry:   0 empty
[RQ] entry:   1 empty
[RQ] entry:   2 empty
[RQ] entry:   3 empty
[RQ] entry:   4 empty
[RQ] entry:   5 empty
[RQ] entry:   6 empty
[RQ] entry:   7 empty
[RQ] entry:   8 empty
[RQ] entry:   9 empty
[RQ] entry:  10 empty
[RQ] entry:  11 empty
[RQ] entry:  12 empty
[RQ] entry:  13 empty
[RQ] entry:  14 empty
[RQ] entry:  15 empty
[RQ] entry:  16 empty
[RQ] entry:  17 empty
[RQ] entry:  18 empty
[RQ] entry:  19 empty
[RQ] entry:  20 empty
[RQ] entry:  21 empty
[RQ] entry:  22 empty
[RQ] entry:  23 empty
[RQ] entry:  24 empty
[RQ] entry:  25 empty
[RQ] entry:  26 empty
[RQ] entry:  27 empty
[RQ] entry:  28 empty
[RQ] entry:  29 empty
[RQ] entry:  30 emp